VERS 180508 18 100795
MODE SEQ
NAME 33918
NOTE 0 75mm Dia x 100mm FL, MgF2 Coated, Achromatic Lens
PFIL 0 0 0
LANG 0
UNIT MM X W X CM MR CPMM
ENPD 75
ENVD 20 1 0
GFAC 0 0
GCAT SCHOTT OHARA MISC CORNING INFRARED NOA61 
RAIM 0 1 1 1 0 0 0 0 0 1
PUSH 0 0 0 0 0 0
SDMA 0 1 0
OMMA 1 1
FTYP 0 0 1 1 0 0 0 1
ROPD 2
HYPR 0
PICB 1
XFLN 0
YFLN 0
FWGN 1
VDXN 0
VDYN 0
VCXN 0
VCYN 0
VANN 0
WAVM 1 0.58760000000000001 1
WAVM 2 0.55000000000000004 1
WAVM 3 0.55000000000000004 1
WAVM 4 0.55000000000000004 1
WAVM 5 0.55000000000000004 1
WAVM 6 0.55000000000000004 1
WAVM 7 0.55000000000000004 1
WAVM 8 0.55000000000000004 1
WAVM 9 0.55000000000000004 1
WAVM 10 0.55000000000000004 1
WAVM 11 0.55000000000000004 1
WAVM 12 0.55000000000000004 1
WAVM 13 0.55000000000000004 1
WAVM 14 0.55000000000000004 1
WAVM 15 0.55000000000000004 1
WAVM 16 0.55000000000000004 1
WAVM 17 0.55000000000000004 1
WAVM 18 0.55000000000000004 1
WAVM 19 0.55000000000000004 1
WAVM 20 0.55000000000000004 1
WAVM 21 0.55000000000000004 1
WAVM 22 0.55000000000000004 1
WAVM 23 0.55000000000000004 1
WAVM 24 0.55000000000000004 1
PWAV 1
POLS 1 0 1 0 0 1 0
GLRS 1 0
GSTD 0 100.000 100.000 100.000 100.000 100.000 100.000 0 1 1 0 0 1 1 1 1 1 1
NSCD 100 500 0 0.001 10 9.9999999999999995e-07 0 0 0 0 0 0 1000000 0 2
COFN QF "COATING.DAT" "SCATTER_PROFILE.DAT" "ABG_DATA.DAT" "PROFILE.GRD"
COFN COATING.DAT SCATTER_PROFILE.DAT ABG_DATA.DAT PROFILE.GRD
SURF 0
  COMM 33918
  TYPE STANDARD
  FIMP 

  CURV 0.0 0 0 0 0 ""
  HIDE 0 0 0 0 0 0 0 0 0 0
  MIRR 2 0
  SLAB 2
  DISZ INFINITY
  DIAM 0 0 0 0 1 ""
  MEMA 0 0 0 0 1 ""
  POPS 0 0 0 0 0 0 0 0 1 1 1 1 0 0 0 0
SURF 1
  STOP
  TYPE STANDARD
  FIMP 

  CURV 1.546312045770839930E-02 0 0 0 0 ""
  COAT EO_MGF2(550nm)
  HIDE 0 0 0 0 0 0 0 0 0 0
  MIRR 2 0
  SLAB 3
  DISZ 26
  GLAS N-BAF10 0 0 0 0 0 0 0 0 0 0 
  DIAM 36.5 1 0 0 1 ""
  OEMA 1 0 0 0 0 ""
  MEMA 37.5 0 0 0 1 ""
  POPS 0 0 0 0 0 0 0 0 1 1 1 1 0 0 0 0
  CLAP 0 36.5 0
SURF 2
  TYPE STANDARD
  FIMP 

  CURV -1.546312045770839930E-02 0 0 0 0 ""
  HIDE 0 0 0 0 0 0 0 0 0 0
  MIRR 2 0
  SLAB 4
  DISZ 0.01
  GLAS NOA61 0 0 1.5 40 0 0 0 0 0 0 
  DIAM 36.5 1 0 0 1 ""
  OEMA 1 0 0 0 0 ""
  MEMA 37.5 0 0 0 1 ""
  POPS 0 0 0 0 0 0 0 0 1 1 1 1 0 0 0 0
  CLAP 0 36.5 0
SURF 3
  TYPE STANDARD
  FIMP 

  CURV -1.546312045770836460E-02 0 0 0 0 ""
  HIDE 0 0 0 0 0 0 0 0 0 0
  MIRR 2 0
  SLAB 5
  DISZ 12.699999999999999
  GLAS N-SF57 0 0 1.5 40 0 0 0 0 0 0 
  DIAM 36.5 1 0 0 1 ""
  OEMA 1 0 0 0 1 ""
  MEMA 37.5 0 0 0 1 ""
  POPS 0 0 0 0 0 0 0 0 1 1 1 1 0 0 0 0
  CLAP 0 36.5 0
SURF 4
  TYPE STANDARD
  FIMP 

  CURV -2.910479472388280940E-03 0 0 0 0 ""
  COAT EO_MGF2(550NM)
  HIDE 0 0 0 0 0 0 0 0 0 0
  MIRR 2 0
  SLAB 6
  DISZ 78.310916943765974
  MAZH 0 0
  DIAM 36.5 1 0 0 1 ""
  OEMA 1 0 0 0 1 ""
  MEMA 37.5 0 0 0 1 ""
  POPS 0 0 0 0 0 0 0 0 1 1 1 1 0 0 0 0
  CLAP 0 36.5 0
SURF 5
  TYPE STANDARD
  FIMP 

  CURV 0.0 0 0 0 0 ""
  HIDE 0 0 0 0 0 0 0 0 0 0
  MIRR 2 0
  SLAB 1
  DISZ 0
  DIAM 0.76745312770040641 0 0 0 1 ""
  MEMA 0.76745312770040641 0 0 0 1 ""
  POPS 0 0 0 0 0 0 0 0 1 1 1 1 0 0 0 0
BLNK 
TOL TOFF   0   0 0.0000000000000000E+00 0.0000000000000000E+00   0 0 0 0 0
MNUM 1 1
MOFF   0   1 "" 0 0 0 1 1 0 0.0 "" 0
