VERS 161019 507 33785
MODE SEQ
NAME US 2017/0075089 Example 1 (Fujifilm Fujinon 18.5mm F2.8 (X70))
NOTE 0 Prepared and converted by Bill Claff.
PFIL 0 0 0
LANG 0
UNIT MM X W X CM MR CPMM
FNUM 2.88 0
ENVD 20 1 0
GFAC 0 0
RAIM 0 2 1 1 0 1 0 0 0
SDMA 0 1 0
FTYP 3 0 3 3 0 0 0
ROPD 2
HYPR 0
PICB 1
XFLN 0 0 0 0 0 0 0 0 0 0 0 0
YFLN 0 9.94 14.2 0 0 0 0 0 0 0 0 0 0
FWGN 1 1 1 1 1 1 1 1 1 1 1 1
VDXN 0 0 0 0 0 0 0 0 0 0 0 0
VDYN 0 0 0 0 0 0 0 0 0 0 0 0
VCXN 0 0 0 0 0 0 0 0 0 0 0 0
VCYN 0 0 0 0 0 0 0 0 0 0 0 0
VANN 0 0 0 0 0 0 0 0 0 0 0 0
WAVM 1 0.4861327 1
WAVM 2 0.5875618 1
WAVM 3 0.6562725 1
WAVM 4 0.550 1
WAVM 5 0.550 1
WAVM 6 0.550 1
WAVM 7 0.550 1
WAVM 8 0.550 1
WAVM 9 0.550 1
WAVM 10 0.550 1
WAVM 11 0.550 1
WAVM 12 0.550 1
WAVM 13 0.550 1
WAVM 14 0.550 1
WAVM 15 0.550 1
WAVM 16 0.550 1
WAVM 17 0.550 1
WAVM 18 0.550 1
WAVM 19 0.550 1
WAVM 20 0.550 1
WAVM 21 0.550 1
WAVM 22 0.550 1
WAVM 23 0.550 1
WAVM 24 0.550 1
PWAV 2
POLS 1 0 1 0 0 1 0
GSTD 0 100 100 100 100 100 100 0 1 1 0 0 1 1 1 1 1 1
NSCD 100 500 0 1.0E-3 5 1.0E-6 0 0 0 0 0 0 1000000 0 2
SURF 0
  TYPE STANDARD
  CURV 0.0 0 0 0 0 ""
  HIDE 0 0 0 0 0 0 0 0 0 0
  MIRR 2 0
  DISZ INFINITY
  DIAM 0 1 0 0 1 ""
  POPS 0 0 0 0 0 0 0 0 1 1 1 1 0 0 0 0
SURF 1
  TYPE STANDARD
  CURV 0.0297026762111266 0 0 0 0
  HIDE 0 0 0 0 0 0 0 0 0 0
  MIRR 2 0
  DISZ  0.5
  GLAS  ___BLANK 1 0 1.59270 35.31 0 0 0 0 0 0
  DIAM  8.245 1 0 0 1 ""
  POPS 0 0 0 0 0 0 0 0 1 1 1 1 0 0 0 0
SURF 2
  TYPE STANDARD
  CURV 0.157109190887667 0 0 0 0
  HIDE 0 0 0 0 0 0 0 0 0 0
  MIRR 2 0
  DISZ  2.28
  GLAS  ___BLANK 1 0 1.88300 40.76 0 0 0 0 0 0
  DIAM  4.13 1 0 0 1 ""
  POPS 0 0 0 0 0 0 0 0 1 1 1 1 0 0 0 0
SURF 3
  TYPE STANDARD
  CURV 0.0192448327624033 0 0 0 0
  HIDE 0 0 0 0 0 0 0 0 0 0
  MIRR 2 0
  DISZ  1.14
  DIAM  3.685 1 0 0 1 ""
  POPS 0 0 0 0 0 0 0 0 1 1 1 1 0 0 0 0
SURF 4
  STOP
  TYPE STANDARD
  CURV 0 0 0 0 0
  HIDE 0 0 0 0 0 0 0 0 0 0
  MIRR 2 0
  DISZ  1.4
  DIAM  2.914 1 0 0 1 ""
  POPS 0 0 0 0 0 0 0 0 1 1 1 1 0 0 0 0
SURF 5
  TYPE STANDARD
  CURV -0.0930059523809524 0 0 0 0
  HIDE 0 0 0 0 0 0 0 0 0 0
  MIRR 2 0
  DISZ  0.5
  GLAS  ___BLANK 1 0 1.69895 30.13 0 0 0 0 0 0
  DIAM  2.82 1 0 0 1 ""
  POPS 0 0 0 0 0 0 0 0 1 1 1 1 0 0 0 0
SURF 6
  TYPE STANDARD
  CURV 0.124378109452736 0 0 0 0
  HIDE 0 0 0 0 0 0 0 0 0 0
  MIRR 2 0
  DISZ  3.11
  GLAS  ___BLANK 1 0 1.88300 40.76 0 0 0 0 0 0
  DIAM  4.245 1 0 0 1 ""
  POPS 0 0 0 0 0 0 0 0 1 1 1 1 0 0 0 0
SURF 7
  TYPE STANDARD
  CURV -0.0914829384319824 0 0 0 0
  HIDE 0 0 0 0 0 0 0 0 0 0
  MIRR 2 0
  DISZ  1.17
  DIAM  4.245 1 0 0 1 ""
  POPS 0 0 0 0 0 0 0 0 1 1 1 1 0 0 0 0
SURF 8
  TYPE XOSPHERE
  CURV -0.147211447162131 0 0 0 0
  HIDE 0 0 0 0 0 0 0 0 0 0
  MIRR 2 0
  XDAT 1 20 0 0 1 0 0 ""
  XDAT 2 1 0 0 1 0 0 ""
  XDAT 3 0 0 0 1 0 0 ""
  XDAT 4 0 0 0 1 0 0 ""
  XDAT 5 1.3782299E-03 0 0 1 0 0 ""
  XDAT 6 -3.9906529E-03 0 0 1 0 0 ""
  XDAT 7 3.0279366E-03 0 0 1 0 0 ""
  XDAT 8 -7.2335607E-04 0 0 1 0 0 ""
  XDAT 9 -5.2662171E-04 0 0 1 0 0 ""
  XDAT 10 4.3174050E-04 0 0 1 0 0 ""
  XDAT 11 -1.0667147E-04 0 0 1 0 0 ""
  XDAT 12 -2.6123249E-05 0 0 1 0 0 ""
  XDAT 13 3.1013165E-05 0 0 1 0 0 ""
  XDAT 14 -7.7837347E-06 0 0 1 0 0 ""
  XDAT 15 -1.7599849E-06 0 0 1 0 0 ""
  XDAT 16 1.2281672E-06 0 0 1 0 0 ""
  XDAT 17 -9.1395399E-08 0 0 1 0 0 ""
  XDAT 18 -6.0784881E-08 0 0 1 0 0 ""
  XDAT 19 1.2422264E-08 0 0 1 0 0 ""
  XDAT 20 5.0707140E-10 0 0 1 0 0 ""
  XDAT 21 -3.2671505E-10 0 0 1 0 0 ""
  XDAT 22 2.3730773E-11 0 0 1 0 0 ""
  DISZ  1.55
  CONI  -1
  GLAS  ___BLANK 1 0 1.56867 58.50 0 0 0 0 0 0
  DIAM  4.06 1 0 0 1 ""
  POPS 0 0 0 0 0 0 0 0 1 1 1 1 0 0 0 0
SURF 9
  TYPE XOSPHERE
  CURV -0.0924591261318153 0 0 0 0
  HIDE 0 0 0 0 0 0 0 0 0 0
  MIRR 2 0
  XDAT 1 20 0 0 1 0 0 ""
  XDAT 2 1 0 0 1 0 0 ""
  XDAT 3 0 0 0 1 0 0 ""
  XDAT 4 0 0 0 1 0 0 ""
  XDAT 5 1.6676754E-03 0 0 1 0 0 ""
  XDAT 6 -2.4750326E-03 0 0 1 0 0 ""
  XDAT 7 1.2407224E-03 0 0 1 0 0 ""
  XDAT 8 -2.8344250E-05 0 0 1 0 0 ""
  XDAT 9 -1.8838124E-04 0 0 1 0 0 ""
  XDAT 10 5.2306441E-05 0 0 1 0 0 ""
  XDAT 11 7.3270033E-06 0 0 1 0 0 ""
  XDAT 12 -5.7426490E-06 0 0 1 0 0 ""
  XDAT 13 6.1758754E-07 0 0 1 0 0 ""
  XDAT 14 2.4398960E-07 0 0 1 0 0 ""
  XDAT 15 -7.3886864E-08 0 0 1 0 0 ""
  XDAT 16 -1.4360895E-09 0 0 1 0 0 ""
  XDAT 17 2.9375274E-09 0 0 1 0 0 ""
  XDAT 18 -1.9017547E-10 0 0 1 0 0 ""
  XDAT 19 -5.5363331E-11 0 0 1 0 0 ""
  XDAT 20 5.8994028E-12 0 0 1 0 0 ""
  XDAT 21 3.9589140E-13 0 0 1 0 0 ""
  XDAT 22 -5.2542757E-14 0 0 1 0 0 ""
  DISZ  4.493
  CONI  -1
  DIAM  5.73 1 0 0 1 ""
  POPS 0 0 0 0 0 0 0 0 1 1 1 1 0 0 0 0
SURF 10
  TYPE XOSPHERE
  CURV -0.0254051550616342 0 0 0 0
  HIDE 0 0 0 0 0 0 0 0 0 0
  MIRR 2 0
  XDAT 1 20 0 0 1 0 0 ""
  XDAT 2 1 0 0 1 0 0 ""
  XDAT 3 0 0 0 1 0 0 ""
  XDAT 4 0 0 0 1 0 0 ""
  XDAT 5 7.1558711E-03 0 0 1 0 0 ""
  XDAT 6 -4.5021273E-03 0 0 1 0 0 ""
  XDAT 7 5.5943157E-04 0 0 1 0 0 ""
  XDAT 8 1.8141289E-04 0 0 1 0 0 ""
  XDAT 9 -6.8061703E-05 0 0 1 0 0 ""
  XDAT 10 7.9699513E-07 0 0 1 0 0 ""
  XDAT 11 2.4057863E-06 0 0 1 0 0 ""
  XDAT 12 -1.9151359E-07 0 0 1 0 0 ""
  XDAT 13 -4.5583276E-08 0 0 1 0 0 ""
  XDAT 14 5.3485862E-09 0 0 1 0 0 ""
  XDAT 15 5.5459375E-10 0 0 1 0 0 ""
  XDAT 16 -8.1148605E-11 0 0 1 0 0 ""
  XDAT 17 -4.5531991E-12 0 0 1 0 0 ""
  XDAT 18 7.6779070E-13 0 0 1 0 0 ""
  XDAT 19 2.2470633E-14 0 0 1 0 0 ""
  XDAT 20 -4.1664211E-15 0 0 1 0 0 ""
  XDAT 21 -4.9469722E-17 0 0 1 0 0 ""
  XDAT 22 9.7697856E-18 0 0 1 0 0 ""
  DISZ  1.55
  CONI  -1
  GLAS  ___BLANK 1 0 1.68201 31.43 0 0 0 0 0 0
  DIAM  8.23 1 0 0 1 ""
  POPS 0 0 0 0 0 0 0 0 1 1 1 1 0 0 0 0
SURF 11
  TYPE XOSPHERE
  CURV 0.0172003742113413 0 0 0 0
  HIDE 0 0 0 0 0 0 0 0 0 0
  MIRR 2 0
  XDAT 1 20 0 0 1 0 0 ""
  XDAT 2 1 0 0 1 0 0 ""
  XDAT 3 0 0 0 1 0 0 ""
  XDAT 4 0 0 0 1 0 0 ""
  XDAT 5 5.5995896E-03 0 0 1 0 0 ""
  XDAT 6 -2.8612644E-03 0 0 1 0 0 ""
  XDAT 7 1.4221896E-04 0 0 1 0 0 ""
  XDAT 8 1.3246894E-04 0 0 1 0 0 ""
  XDAT 9 -2.6896787E-05 0 0 1 0 0 ""
  XDAT 10 -1.3966448E-06 0 0 1 0 0 ""
  XDAT 11 8.5583589E-07 0 0 1 0 0 ""
  XDAT 12 -3.0874398E-08 0 0 1 0 0 ""
  XDAT 13 -1.2225967E-08 0 0 1 0 0 ""
  XDAT 14 9.4461070E-10 0 0 1 0 0 ""
  XDAT 15 8.3855914E-11 0 0 1 0 0 ""
  XDAT 16 -9.9278279E-12 0 0 1 0 0 ""
  XDAT 17 -1.6287784E-13 0 0 1 0 0 ""
  XDAT 18 4.3963915E-14 0 0 1 0 0 ""
  XDAT 19 -6.9690143E-16 0 0 1 0 0 ""
  XDAT 20 -6.2998485E-17 0 0 1 0 0 ""
  XDAT 21 3.2617438E-18 0 0 1 0 0 ""
  XDAT 22 -8.4650758E-20 0 0 1 0 0 ""
  DISZ  0.3
  CONI  -1
  DIAM  10.975 1 0 0 1 ""
  POPS 0 0 0 0 0 0 0 0 1 1 1 1 0 0 0 0
SURF 12
  TYPE STANDARD
  CURV 0.0080147471347279 0 0 0 0
  HIDE 0 0 0 0 0 0 0 0 0 0
  MIRR 2 0
  DISZ  4.32
  GLAS  ___BLANK 1 0 1.88300 40.76 0 0 0 0 0 0
  DIAM  12.695 1 0 0 1 ""
  POPS 0 0 0 0 0 0 0 0 1 1 1 1 0 0 0 0
SURF 13
  TYPE STANDARD
  CURV -0.0313784555524177 0 0 0 0
  HIDE 0 0 0 0 0 0 0 0 0 0
  MIRR 2 0
  DISZ  2
  DIAM  12.695 1 0 0 1 ""
  POPS 0 0 0 0 0 0 0 0 1 1 1 1 0 0 0 0
SURF 14
  TYPE STANDARD
  CURV 0 0 0 0 0
  HIDE 0 0 0 0 0 0 0 0 0 0
  MIRR 2 0
  DISZ  1.3
  GLAS  ___BLANK 1 0 1.49784 54.98 0 0 0 0 0 0
  DIAM  14.64 1 0 0 1 ""
  POPS 0 0 0 0 0 0 0 0 1 1 1 1 0 0 0 0
SURF 15
  TYPE STANDARD
  CURV 0 0 0 0 0
  HIDE 0 0 0 0 0 0 0 0 0 0
  MIRR 2 0
  DISZ  2.225
  DIAM  14.64 1 0 0 1 ""
  POPS 0 0 0 0 0 0 0 0 1 1 1 1 0 0 0 0
SURF 16
  TYPE STANDARD
  CURV 0.0 0 0 0 0 ""
  HIDE 0 0 0 0 0 0 0 0 0 0
  MIRR 2 0
  DISZ 0
  DIAM 14.2 1 0 0 1 ""
  POPS 0 0 0 0 0 0 0 0 1 1 1 1 0 0 0 0
TOL TOFF   0   0              0              0   0 0 0 0
MNUM 1 1
