VERS 161019 507 33785
MODE SEQ
NAME US 2014/0133036 Example 1 (Fujifilm Fujinon 7.1-28.4mm F2.0-2.8 Super EBC (X10))
NOTE 0 Prepared and converted by Bill Claff.
PFIL 0 0 0
LANG 0
UNIT MM X W X CM MR CPMM
FNUM 2.05 0
ENVD 20 1 0
GFAC 0 0
RAIM 0 2 1 1 0 1 0 0 0
SDMA 0 1 0
FTYP 3 0 3 3 0 0 0
ROPD 2
HYPR 0
PICB 1
XFLN 0 0 0 0 0 0 0 0 0 0 0 0
YFLN 0 3.85 5.5 0 0 0 0 0 0 0 0 0 0
FWGN 1 1 1 1 1 1 1 1 1 1 1 1
VDXN 0 0 0 0 0 0 0 0 0 0 0 0
VDYN 0 0 0 0 0 0 0 0 0 0 0 0
VCXN 0 0 0 0 0 0 0 0 0 0 0 0
VCYN 0 0 0 0 0 0 0 0 0 0 0 0
VANN 0 0 0 0 0 0 0 0 0 0 0 0
WAVM 1 0.4861327 1
WAVM 2 0.5875618 1
WAVM 3 0.6562725 1
WAVM 4 0.550 1
WAVM 5 0.550 1
WAVM 6 0.550 1
WAVM 7 0.550 1
WAVM 8 0.550 1
WAVM 9 0.550 1
WAVM 10 0.550 1
WAVM 11 0.550 1
WAVM 12 0.550 1
WAVM 13 0.550 1
WAVM 14 0.550 1
WAVM 15 0.550 1
WAVM 16 0.550 1
WAVM 17 0.550 1
WAVM 18 0.550 1
WAVM 19 0.550 1
WAVM 20 0.550 1
WAVM 21 0.550 1
WAVM 22 0.550 1
WAVM 23 0.550 1
WAVM 24 0.550 1
PWAV 2
POLS 1 0 1 0 0 1 0
GSTD 0 100 100 100 100 100 100 0 1 1 0 0 1 1 1 1 1 1
NSCD 100 500 0 1.0E-3 5 1.0E-6 0 0 0 0 0 0 1000000 0 2
SURF 0
  TYPE STANDARD
  CURV 0.0 0 0 0 0 ""
  HIDE 0 0 0 0 0 0 0 0 0 0
  MIRR 2 0
  DISZ INFINITY
  DIAM 0 1 0 0 1 ""
  POPS 0 0 0 0 0 0 0 0 1 1 1 1 0 0 0 0
SURF 1
  TYPE STANDARD
  CURV 0.0258864825965177 0 0 0 0
  HIDE 0 0 0 0 0 0 0 0 0 0
  MIRR 2 0
  DISZ  1.11
  GLAS  ___BLANK 1 0 1.945945 17.98 0 0 0 0 0 0
  DIAM  14.11 1 0 0 1 ""
  POPS 0 0 0 0 0 0 0 0 1 1 1 1 0 0 0 0
SURF 2
  TYPE STANDARD
  CURV 0.0370699881376038 0 0 0 0
  HIDE 0 0 0 0 0 0 0 0 0 0
  MIRR 2 0
  DISZ  4.3
  GLAS  ___BLANK 1 0 1.834807 42.72 0 0 0 0 0 0
  DIAM  13.18 1 0 0 1 ""
  POPS 0 0 0 0 0 0 0 0 1 1 1 1 0 0 0 0
SURF 3
  TYPE STANDARD
  CURV 0.00268928028674182 0 0 0 0
  HIDE 0 0 0 0 0 0 0 0 0 0
  MIRR 2 0
  DISZ  0.4
  DIAM  13.18 1 0 0 1 ""
  POPS 0 0 0 0 0 0 0 0 1 1 1 1 0 0 0 0
SURF 4
  TYPE STANDARD
  CURV 0.0149902788041955 0 0 0 0
  HIDE 0 0 0 0 0 0 0 0 0 0
  MIRR 2 0
  DISZ  1
  GLAS  ___BLANK 1 0 1.882997 40.76 0 0 0 0 0 0
  DIAM  9.68 1 0 0 1 ""
  POPS 0 0 0 0 0 0 0 0 1 1 1 1 0 0 0 0
SURF 5
  TYPE STANDARD
  CURV 0.118860837731184 0 0 0 0
  HIDE 0 0 0 0 0 0 0 0 0 0
  MIRR 2 0
  DISZ  4.8
  DIAM  6.84 1 0 0 1 ""
  POPS 0 0 0 0 0 0 0 0 1 1 1 1 0 0 0 0
SURF 6
  TYPE XOSPHERE
  CURV -0.0524645208677632 0 0 0 0
  HIDE 0 0 0 0 0 0 0 0 0 0
  MIRR 2 0
  XDAT 1 10 0 0 1 0 0 ""
  XDAT 2 1 0 0 1 0 0 ""
  XDAT 3 0 0 0 1 0 0 ""
  XDAT 4 0 0 0 1 0 0 ""
  XDAT 5 1.150223E-03 0 0 1 0 0 ""
  XDAT 6 -6.585878E-04 0 0 1 0 0 ""
  XDAT 7 1.685927E-04 0 0 1 0 0 ""
  XDAT 8 -1.904884E-06 0 0 1 0 0 ""
  XDAT 9 -5.155217E-06 0 0 1 0 0 ""
  XDAT 10 4.256246E-08 0 0 1 0 0 ""
  XDAT 11 1.426374E-07 0 0 1 0 0 ""
  XDAT 12 -1.188533E-08 0 0 1 0 0 ""
  DISZ  1
  CONI  -5.148111
  GLAS  ___BLANK 1 0 1.583129 59.37 0 0 0 0 0 0
  DIAM  6.84 1 0 0 1 ""
  POPS 0 0 0 0 0 0 0 0 1 1 1 1 0 0 0 0
SURF 7
  TYPE XOSPHERE
  CURV 0.0179608023449624 0 0 0 0
  HIDE 0 0 0 0 0 0 0 0 0 0
  MIRR 2 0
  XDAT 1 10 0 0 1 0 0 ""
  XDAT 2 1 0 0 1 0 0 ""
  XDAT 3 0 0 0 1 0 0 ""
  XDAT 4 0 0 0 1 0 0 ""
  XDAT 5 9.646437E-04 0 0 1 0 0 ""
  XDAT 6 -4.885791E-04 0 0 1 0 0 ""
  XDAT 7 1.432608E-04 0 0 1 0 0 ""
  XDAT 8 -3.875323E-06 0 0 1 0 0 ""
  XDAT 9 -4.241185E-06 0 0 1 0 0 ""
  XDAT 10 9.597971E-08 0 0 1 0 0 ""
  XDAT 11 1.081173E-07 0 0 1 0 0 ""
  XDAT 12 -9.188089E-09 0 0 1 0 0 ""
  DISZ  0.4
  CONI  -10.950295
  DIAM  7.01 1 0 0 1 ""
  POPS 0 0 0 0 0 0 0 0 1 1 1 1 0 0 0 0
SURF 8
  TYPE STANDARD
  CURV 0.040149839199894 0 0 0 0
  HIDE 0 0 0 0 0 0 0 0 0 0
  MIRR 2 0
  DISZ  2.5
  GLAS  ___BLANK 1 0 1.922860 20.88 0 0 0 0 0 0
  DIAM  7.28 1 0 0 1 ""
  POPS 0 0 0 0 0 0 0 0 1 1 1 1 0 0 0 0
SURF 9
  TYPE STANDARD
  CURV -0.00200052533795375 0 0 0 0
  HIDE 0 0 0 0 0 0 0 0 0 0
  MIRR 2 0
  DISZ  19.85
  DIAM  7.28 1 0 0 1 ""
  POPS 0 0 0 0 0 0 0 0 1 1 1 1 0 0 0 0
SURF 10
  STOP
  TYPE STANDARD
  CURV 0 0 0 0 0
  HIDE 0 0 0 0 0 0 0 0 0 0
  MIRR 2 0
  DISZ  0.85
  DIAM  4.8815 1 0 0 1 ""
  POPS 0 0 0 0 0 0 0 0 1 1 1 1 0 0 0 0
SURF 11
  TYPE XOSPHERE
  CURV 0.0703348642888793 0 0 0 0
  HIDE 0 0 0 0 0 0 0 0 0 0
  MIRR 2 0
  XDAT 1 12 0 0 1 0 0 ""
  XDAT 2 1 0 0 1 0 0 ""
  XDAT 3 0 0 0 1 0 0 ""
  XDAT 4 0 0 0 1 0 0 ""
  XDAT 5 -4.036084E-05 0 0 1 0 0 ""
  XDAT 6 -5.899152E-05 0 0 1 0 0 ""
  XDAT 7 -3.723504E-05 0 0 1 0 0 ""
  XDAT 8 1.055957E-05 0 0 1 0 0 ""
  XDAT 9 -9.760767E-07 0 0 1 0 0 ""
  XDAT 10 -4.976513E-07 0 0 1 0 0 ""
  XDAT 11 1.682713E-07 0 0 1 0 0 ""
  XDAT 12 -2.503631E-08 0 0 1 0 0 ""
  XDAT 13 2.157418E-09 0 0 1 0 0 ""
  XDAT 14 -1.060850E-10 0 0 1 0 0 ""
  DISZ  2.5
  CONI  2.660046
  GLAS  ___BLANK 1 0 1.803603 40.28 0 0 0 0 0 0
  DIAM  6.41 1 0 0 1 ""
  POPS 0 0 0 0 0 0 0 0 1 1 1 1 0 0 0 0
SURF 12
  TYPE STANDARD
  CURV -0.00399766376529556 0 0 0 0
  HIDE 0 0 0 0 0 0 0 0 0 0
  MIRR 2 0
  DISZ  0.1
  DIAM  6.41 1 0 0 1 ""
  POPS 0 0 0 0 0 0 0 0 1 1 1 1 0 0 0 0
SURF 13
  TYPE STANDARD
  CURV 0.0999100809271656 0 0 0 0
  HIDE 0 0 0 0 0 0 0 0 0 0
  MIRR 2 0
  DISZ  3.41
  GLAS  ___BLANK 1 0 1.592824 68.62 0 0 0 0 0 0
  DIAM  5.37 1 0 0 1 ""
  POPS 0 0 0 0 0 0 0 0 1 1 1 1 0 0 0 0
SURF 14
  TYPE STANDARD
  CURV -0.0478835472131776 0 0 0 0
  HIDE 0 0 0 0 0 0 0 0 0 0
  MIRR 2 0
  DISZ  0.7
  GLAS  ___BLANK 1 0 1.698947 30.13 0 0 0 0 0 0
  DIAM  5.7 1 0 0 1 ""
  POPS 0 0 0 0 0 0 0 0 1 1 1 1 0 0 0 0
SURF 15
  TYPE STANDARD
  CURV 0.1350220085874 0 0 0 0
  HIDE 0 0 0 0 0 0 0 0 0 0
  MIRR 2 0
  DISZ  2.1
  DIAM  4.03 1 0 0 1 ""
  POPS 0 0 0 0 0 0 0 0 1 1 1 1 0 0 0 0
SURF 16
  TYPE XOSPHERE
  CURV -0.1 0 0 0 0
  HIDE 0 0 0 0 0 0 0 0 0 0
  MIRR 2 0
  XDAT 1 12 0 0 1 0 0 ""
  XDAT 2 1 0 0 1 0 0 ""
  XDAT 3 0 0 0 1 0 0 ""
  XDAT 4 0 0 0 1 0 0 ""
  XDAT 5 -7.781902E-04 0 0 1 0 0 ""
  XDAT 6 -8.305061E-04 0 0 1 0 0 ""
  XDAT 7 -2.230827E-05 0 0 1 0 0 ""
  XDAT 8 -1.358257E-05 0 0 1 0 0 ""
  XDAT 9 1.334413E-05 0 0 1 0 0 ""
  XDAT 10 2.007369E-06 0 0 1 0 0 ""
  XDAT 11 -1.003647E-06 0 0 1 0 0 ""
  XDAT 12 -1.949607E-07 0 0 1 0 0 ""
  XDAT 13 8.686077E-08 0 0 1 0 0 ""
  XDAT 14 -7.236734E-09 0 0 1 0 0 ""
  DISZ  0.9
  CONI  -9.971192
  GLAS  ___BLANK 1 0 1.803603 40.28 0 0 0 0 0 0
  DIAM  4.03 1 0 0 1 ""
  POPS 0 0 0 0 0 0 0 0 1 1 1 1 0 0 0 0
SURF 17
  TYPE XOSPHERE
  CURV -0.0488737054577267 0 0 0 0
  HIDE 0 0 0 0 0 0 0 0 0 0
  MIRR 2 0
  XDAT 1 12 0 0 1 0 0 ""
  XDAT 2 1 0 0 1 0 0 ""
  XDAT 3 0 0 0 1 0 0 ""
  XDAT 4 0 0 0 1 0 0 ""
  XDAT 5 -8.424122E-04 0 0 1 0 0 ""
  XDAT 6 7.988741E-04 0 0 1 0 0 ""
  XDAT 7 -2.765325E-04 0 0 1 0 0 ""
  XDAT 8 4.453843E-05 0 0 1 0 0 ""
  XDAT 9 2.895206E-06 0 0 1 0 0 ""
  XDAT 10 3.897227E-07 0 0 1 0 0 ""
  XDAT 11 -7.739047E-07 0 0 1 0 0 ""
  XDAT 12 1.551732E-07 0 0 1 0 0 ""
  XDAT 13 -1.172742E-08 0 0 1 0 0 ""
  XDAT 14 3.933323E-10 0 0 1 0 0 ""
  DISZ  0.1
  CONI  -6.65845
  DIAM  4.03 1 0 0 1 ""
  POPS 0 0 0 0 0 0 0 0 1 1 1 1 0 0 0 0
SURF 18
  TYPE STANDARD
  CURV 0.0358476903333118 0 0 0 0
  HIDE 0 0 0 0 0 0 0 0 0 0
  MIRR 2 0
  DISZ  2.9
  GLAS  ___BLANK 1 0 1.496999 81.54 0 0 0 0 0 0
  DIAM  5.21 1 0 0 1 ""
  POPS 0 0 0 0 0 0 0 0 1 1 1 1 0 0 0 0
SURF 19
  TYPE STANDARD
  CURV -0.0998891230733885 0 0 0 0
  HIDE 0 0 0 0 0 0 0 0 0 0
  MIRR 2 0
  DISZ  6.77
  DIAM  5.21 1 0 0 1 ""
  POPS 0 0 0 0 0 0 0 0 1 1 1 1 0 0 0 0
SURF 20
  TYPE STANDARD
  CURV 0.0689864510610116 0 0 0 0
  HIDE 0 0 0 0 0 0 0 0 0 0
  MIRR 2 0
  DISZ  2.8
  GLAS  ___BLANK 1 0 1.487490 70.24 0 0 0 0 0 0
  DIAM  7.01 1 0 0 1 ""
  POPS 0 0 0 0 0 0 0 0 1 1 1 1 0 0 0 0
SURF 21
  TYPE STANDARD
  CURV 0.0286187721974352 0 0 0 0
  HIDE 0 0 0 0 0 0 0 0 0 0
  MIRR 2 0
  DISZ  4.1
  DIAM  7.01 1 0 0 1 ""
  POPS 0 0 0 0 0 0 0 0 1 1 1 1 0 0 0 0
SURF 22
  TYPE STANDARD
  CURV 0 0 0 0 0
  HIDE 0 0 0 0 0 0 0 0 0 0
  MIRR 2 0
  DISZ  2.14
  GLAS  ___BLANK 1 0 1.516798 64.20 0 0 0 0 0 0
  DIAM  5.7 1 0 0 1 ""
  POPS 0 0 0 0 0 0 0 0 1 1 1 1 0 0 0 0
SURF 23
  TYPE STANDARD
  CURV 0 0 0 0 0
  HIDE 0 0 0 0 0 0 0 0 0 0
  MIRR 2 0
  DISZ  0.61
  DIAM  5.7 1 0 0 1 ""
  POPS 0 0 0 0 0 0 0 0 1 1 1 1 0 0 0 0
SURF 24
  TYPE STANDARD
  CURV 0.0 0 0 0 0 ""
  HIDE 0 0 0 0 0 0 0 0 0 0
  MIRR 2 0
  DISZ 0
  DIAM 5.5 1 0 0 1 ""
  POPS 0 0 0 0 0 0 0 0 1 1 1 1 0 0 0 0
TOL TOFF   0   0              0              0   0 0 0 0
MNUM 3 1
THIC   3   1 0.40 0 0 0 1 1 1 0 0
THIC   3   2 9.03 0 0 0 1 1 1 0 0
THIC   3   3 16.30 0 0 0 1 1 1 0 0
THIC   9   1 19.85 0 0 0 1 1 1 0 0
THIC   9   2 8.57 0 0 0 1 1 1 0 0
THIC   9   3 1.70 0 0 0 1 1 1 0 0
THIC   19   1 6.77 0 0 0 1 1 1 0 0
THIC   19   2 10.00 0 0 0 1 1 1 0 0
THIC   19   3 18.20 0 0 0 1 1 1 0 0
THIC   21   1 4.10 0 0 0 1 1 1 0 0
THIC   21   2 5.55 0 0 0 1 1 1 0 0
THIC   21   3 4.65 0 0 0 1 1 1 0 0
