VERS 161019 507 33785
MODE SEQ
NAME US 2020/0333569 Example 1 (Fujifilm Fujinon 23mm F2.0 II Super EBC (X100V))
NOTE 0 Prepared and converted by Bill Claff.
PFIL 0 0 0
LANG 0
UNIT MM X W X CM MR CPMM
FNUM 2.06 0
ENVD 20 1 0
GFAC 0 0
RAIM 0 2 1 1 0 1 0 0 0
SDMA 0 1 0
FTYP 3 0 3 3 0 0 0
ROPD 2
HYPR 0
PICB 1
XFLN 0 0 0 0 0 0 0 0 0 0 0 0
YFLN 0 9.94 14.2 0 0 0 0 0 0 0 0 0 0
FWGN 1 1 1 1 1 1 1 1 1 1 1 1
VDXN 0 0 0 0 0 0 0 0 0 0 0 0
VDYN 0 0 0 0 0 0 0 0 0 0 0 0
VCXN 0 0 0 0 0 0 0 0 0 0 0 0
VCYN 0 0 0 0 0 0 0 0 0 0 0 0
VANN 0 0 0 0 0 0 0 0 0 0 0 0
WAVM 1 0.4861327 1
WAVM 2 0.5875618 1
WAVM 3 0.6562725 1
WAVM 4 0.550 1
WAVM 5 0.550 1
WAVM 6 0.550 1
WAVM 7 0.550 1
WAVM 8 0.550 1
WAVM 9 0.550 1
WAVM 10 0.550 1
WAVM 11 0.550 1
WAVM 12 0.550 1
WAVM 13 0.550 1
WAVM 14 0.550 1
WAVM 15 0.550 1
WAVM 16 0.550 1
WAVM 17 0.550 1
WAVM 18 0.550 1
WAVM 19 0.550 1
WAVM 20 0.550 1
WAVM 21 0.550 1
WAVM 22 0.550 1
WAVM 23 0.550 1
WAVM 24 0.550 1
PWAV 2
POLS 1 0 1 0 0 1 0
GSTD 0 100 100 100 100 100 100 0 1 1 0 0 1 1 1 1 1 1
NSCD 100 500 0 1.0E-3 5 1.0E-6 0 0 0 0 0 0 1000000 0 2
SURF 0
  TYPE STANDARD
  CURV 0.0 0 0 0 0 ""
  HIDE 0 0 0 0 0 0 0 0 0 0
  MIRR 2 0
  DISZ INFINITY
  DIAM 0 1 0 0 1 ""
  POPS 0 0 0 0 0 0 0 0 1 1 1 1 0 0 0 0
SURF 1
  TYPE STANDARD
  CURV 0.032278691641336 0 0 0 0
  HIDE 0 0 0 0 0 0 0 0 0 0
  MIRR 2 0
  DISZ  0.59
  GLAS  ___BLANK 1 0 1.71736 29.51 0 0 0 0 0 0
  DIAM  9.99 1 0 0 1 ""
  POPS 0 0 0 0 0 0 0 0 1 1 1 1 0 0 0 0
SURF 2
  TYPE STANDARD
  CURV 0.0804569957357792 0 0 0 0
  HIDE 0 0 0 0 0 0 0 0 0 0
  MIRR 2 0
  DISZ  2.67
  GLAS  ___BLANK 1 0 1.88300 39.22 0 0 0 0 0 0
  DIAM  6.885 1 0 0 1 ""
  POPS 0 0 0 0 0 0 0 0 1 1 1 1 0 0 0 0
SURF 3
  TYPE STANDARD
  CURV 0.0155821442339366 0 0 0 0
  HIDE 0 0 0 0 0 0 0 0 0 0
  MIRR 2 0
  DISZ  1.57
  DIAM  6.885 1 0 0 1 ""
  POPS 0 0 0 0 0 0 0 0 1 1 1 1 0 0 0 0
SURF 4
  STOP
  TYPE STANDARD
  CURV 0 0 0 0 0
  HIDE 0 0 0 0 0 0 0 0 0 0
  MIRR 2 0
  DISZ  5.88
  DIAM  5.272 1 0 0 1 ""
  POPS 0 0 0 0 0 0 0 0 1 1 1 1 0 0 0 0
SURF 5
  TYPE STANDARD
  CURV -0.0944638515179396 0 0 0 0
  HIDE 0 0 0 0 0 0 0 0 0 0
  MIRR 2 0
  DISZ  0.61
  GLAS  ___BLANK 1 0 1.69895 30.05 0 0 0 0 0 0
  DIAM  5.695 1 0 0 1 ""
  POPS 0 0 0 0 0 0 0 0 1 1 1 1 0 0 0 0
SURF 6
  TYPE STANDARD
  CURV 0.0236434566733656 0 0 0 0
  HIDE 0 0 0 0 0 0 0 0 0 0
  MIRR 2 0
  DISZ  4.35
  GLAS  ___BLANK 1 0 1.77250 49.61 0 0 0 0 0 0
  DIAM  8.365 1 0 0 1 ""
  POPS 0 0 0 0 0 0 0 0 1 1 1 1 0 0 0 0
SURF 7
  TYPE STANDARD
  CURV -0.0652299126114861 0 0 0 0
  HIDE 0 0 0 0 0 0 0 0 0 0
  MIRR 2 0
  DISZ  0.2
  DIAM  8.365 1 0 0 1 ""
  POPS 0 0 0 0 0 0 0 0 1 1 1 1 0 0 0 0
SURF 8
  TYPE XOSPHERE
  CURV 0.0287999769600184 0 0 0 0
  HIDE 0 0 0 0 0 0 0 0 0 0
  MIRR 2 0
  XDAT 1 20 0 0 1 0 0 ""
  XDAT 2 1 0 0 1 0 0 ""
  XDAT 3 0 0 0 1 0 0 ""
  XDAT 4 0 0 0 1 0 0 ""
  XDAT 5 -1.5217964E-04 0 0 1 0 0 ""
  XDAT 6 2.4706739E-04 0 0 1 0 0 ""
  XDAT 7 -1.9986864E-04 0 0 1 0 0 ""
  XDAT 8 1.0534079E-04 0 0 1 0 0 ""
  XDAT 9 -3.4430391E-05 0 0 1 0 0 ""
  XDAT 10 6.9668708E-06 0 0 1 0 0 ""
  XDAT 11 -8.2587997E-07 0 0 1 0 0 ""
  XDAT 12 4.6910827E-08 0 0 1 0 0 ""
  XDAT 13 -5.7981580E-10 0 0 1 0 0 ""
  XDAT 14 2.2371123E-10 0 0 1 0 0 ""
  XDAT 15 -6.8464232E-11 0 0 1 0 0 ""
  XDAT 16 7.0551541E-12 0 0 1 0 0 ""
  XDAT 17 -3.2955028E-13 0 0 1 0 0 ""
  XDAT 18 6.0646736E-15 0 0 1 0 0 ""
  XDAT 19 -3.1163867E-18 0 0 1 0 0 ""
  XDAT 20 -7.1851751E-19 0 0 1 0 0 ""
  XDAT 21 1.1695193E-20 0 0 1 0 0 ""
  XDAT 22 1.8644650E-21 0 0 1 0 0 ""
  DISZ  5
  CONI  0
  GLAS  ___BLANK 1 0 1.80780 40.86 0 0 0 0 0 0
  DIAM  10 1 0 0 1 ""
  POPS 0 0 0 0 0 0 0 0 1 1 1 1 0 0 0 0
SURF 9
  TYPE XOSPHERE
  CURV -0.029871415504818 0 0 0 0
  HIDE 0 0 0 0 0 0 0 0 0 0
  MIRR 2 0
  XDAT 1 20 0 0 1 0 0 ""
  XDAT 2 1 0 0 1 0 0 ""
  XDAT 3 0 0 0 1 0 0 ""
  XDAT 4 0 0 0 1 0 0 ""
  XDAT 5 4.6707088E-04 0 0 1 0 0 ""
  XDAT 6 -1.0166693E-04 0 0 1 0 0 ""
  XDAT 7 3.6407193E-05 0 0 1 0 0 ""
  XDAT 8 -1.3756074E-05 0 0 1 0 0 ""
  XDAT 9 5.1076177E-06 0 0 1 0 0 ""
  XDAT 10 -1.2536522E-06 0 0 1 0 0 ""
  XDAT 11 1.9023164E-07 0 0 1 0 0 ""
  XDAT 12 -1.5587710E-08 0 0 1 0 0 ""
  XDAT 13 2.8140078E-10 0 0 1 0 0 ""
  XDAT 14 3.2636450E-11 0 0 1 0 0 ""
  XDAT 15 5.0343516E-12 0 0 1 0 0 ""
  XDAT 16 -1.2681241E-12 0 0 1 0 0 ""
  XDAT 17 8.7906193E-14 0 0 1 0 0 ""
  XDAT 18 -2.0482602E-15 0 0 1 0 0 ""
  XDAT 19 -4.9884016E-19 0 0 1 0 0 ""
  XDAT 20 5.2732620E-19 0 0 1 0 0 ""
  XDAT 21 -1.8316881E-19 0 0 1 0 0 ""
  XDAT 22 8.4138980E-21 0 0 1 0 0 ""
  DISZ  1.1
  CONI  0
  DIAM  9.61 1 0 0 1 ""
  POPS 0 0 0 0 0 0 0 0 1 1 1 1 0 0 0 0
SURF 10
  TYPE XOSPHERE
  CURV 0.00150021467321866 0 0 0 0
  HIDE 0 0 0 0 0 0 0 0 0 0
  MIRR 2 0
  XDAT 1 20 0 0 1 0 0 ""
  XDAT 2 1 0 0 1 0 0 ""
  XDAT 3 0 0 0 1 0 0 ""
  XDAT 4 0 0 0 1 0 0 ""
  XDAT 5 6.9988571E-04 0 0 1 0 0 ""
  XDAT 6 -7.8490068E-05 0 0 1 0 0 ""
  XDAT 7 -2.3476671E-05 0 0 1 0 0 ""
  XDAT 8 1.7123418E-05 0 0 1 0 0 ""
  XDAT 9 -4.1267936E-06 0 0 1 0 0 ""
  XDAT 10 5.0213388E-07 0 0 1 0 0 ""
  XDAT 11 -1.9486235E-09 0 0 1 0 0 ""
  XDAT 12 -8.2542881E-09 0 0 1 0 0 ""
  XDAT 13 1.0151630E-09 0 0 1 0 0 ""
  XDAT 14 -3.1786078E-11 0 0 1 0 0 ""
  XDAT 15 -2.6828331E-12 0 0 1 0 0 ""
  XDAT 16 1.9590923E-13 0 0 1 0 0 ""
  XDAT 17 6.6935119E-15 0 0 1 0 0 ""
  XDAT 18 -8.5735230E-16 0 0 1 0 0 ""
  XDAT 19 -4.4918245E-18 0 0 1 0 0 ""
  XDAT 20 1.6151998E-18 0 0 1 0 0 ""
  XDAT 21 8.0183252E-20 0 0 1 0 0 ""
  XDAT 22 -8.8086271E-21 0 0 1 0 0 ""
  DISZ  2.84
  CONI  0
  GLAS  ___BLANK 1 0 1.51633 64.06 0 0 0 0 0 0
  DIAM  10.485 1 0 0 1 ""
  POPS 0 0 0 0 0 0 0 0 1 1 1 1 0 0 0 0
SURF 11
  TYPE XOSPHERE
  CURV 0.00740533775264143 0 0 0 0
  HIDE 0 0 0 0 0 0 0 0 0 0
  MIRR 2 0
  XDAT 1 20 0 0 1 0 0 ""
  XDAT 2 1 0 0 1 0 0 ""
  XDAT 3 0 0 0 1 0 0 ""
  XDAT 4 0 0 0 1 0 0 ""
  XDAT 5 -2.3771611E-04 0 0 1 0 0 ""
  XDAT 6 1.7211189E-04 0 0 1 0 0 ""
  XDAT 7 -4.3702546E-06 0 0 1 0 0 ""
  XDAT 8 -1.5476285E-05 0 0 1 0 0 ""
  XDAT 9 5.2884500E-06 0 0 1 0 0 ""
  XDAT 10 -6.7258964E-07 0 0 1 0 0 ""
  XDAT 11 1.3917510E-09 0 0 1 0 0 ""
  XDAT 12 1.0109269E-08 0 0 1 0 0 ""
  XDAT 13 -1.2035642E-09 0 0 1 0 0 ""
  XDAT 14 5.9393956E-11 0 0 1 0 0 ""
  XDAT 15 -3.9309708E-12 0 0 1 0 0 ""
  XDAT 16 6.5830604E-13 0 0 1 0 0 ""
  XDAT 17 -5.2709876E-14 0 0 1 0 0 ""
  XDAT 18 1.1668344E-15 0 0 1 0 0 ""
  XDAT 19 2.1822742E-17 0 0 1 0 0 ""
  XDAT 20 3.5346850E-19 0 0 1 0 0 ""
  XDAT 21 3.5695647E-19 0 0 1 0 0 ""
  XDAT 22 -3.5705496E-20 0 0 1 0 0 ""
  DISZ  5.86
  CONI  0
  DIAM  9.98 1 0 0 1 ""
  POPS 0 0 0 0 0 0 0 0 1 1 1 1 0 0 0 0
SURF 12
  TYPE STANDARD
  CURV -0.0659133213458973 0 0 0 0
  HIDE 0 0 0 0 0 0 0 0 0 0
  MIRR 2 0
  DISZ  0.74
  GLAS  ___BLANK 1 0 1.69895 30.05 0 0 0 0 0 0
  DIAM  10.185 1 0 0 1 ""
  POPS 0 0 0 0 0 0 0 0 1 1 1 1 0 0 0 0
SURF 13
  TYPE STANDARD
  CURV 0 0 0 0 0
  HIDE 0 0 0 0 0 0 0 0 0 0
  MIRR 2 0
  DISZ  0.1
  DIAM  12.225 1 0 0 1 ""
  POPS 0 0 0 0 0 0 0 0 1 1 1 1 0 0 0 0
SURF 14
  TYPE STANDARD
  CURV 0.012121046099611 0 0 0 0
  HIDE 0 0 0 0 0 0 0 0 0 0
  MIRR 2 0
  DISZ  1.98
  GLAS  ___BLANK 1 0 1.88300 39.22 0 0 0 0 0 0
  DIAM  13.255 1 0 0 1 ""
  POPS 0 0 0 0 0 0 0 0 1 1 1 1 0 0 0 0
SURF 15
  TYPE STANDARD
  CURV 0 0 0 0 0
  HIDE 0 0 0 0 0 0 0 0 0 0
  MIRR 2 0
  DISZ  3.504
  DIAM  13.255 1 0 0 1 ""
  POPS 0 0 0 0 0 0 0 0 1 1 1 1 0 0 0 0
SURF 16
  TYPE STANDARD
  CURV 0 0 0 0 0
  HIDE 0 0 0 0 0 0 0 0 0 0
  MIRR 2 0
  DISZ  1.3
  GLAS  ___BLANK 1 0 1.51680 64.20 0 0 0 0 0 0
  DIAM  14 1 0 0 1 ""
  POPS 0 0 0 0 0 0 0 0 1 1 1 1 0 0 0 0
SURF 17
  TYPE STANDARD
  CURV 0 0 0 0 0
  HIDE 0 0 0 0 0 0 0 0 0 0
  MIRR 2 0
  DISZ  0.5
  DIAM  14 1 0 0 1 ""
  POPS 0 0 0 0 0 0 0 0 1 1 1 1 0 0 0 0
SURF 18
  TYPE STANDARD
  CURV 0.0 0 0 0 0 ""
  HIDE 0 0 0 0 0 0 0 0 0 0
  MIRR 2 0
  DISZ 0
  DIAM 14.2 1 0 0 1 ""
  POPS 0 0 0 0 0 0 0 0 1 1 1 1 0 0 0 0
TOL TOFF   0   0              0              0   0 0 0 0
MNUM 1 1
