VERS 161019 507 33785
MODE SEQ
NAME JP 2022-138408 Example 1 (Sigma 18-50mm F2.8 DC DN C)
NOTE 0 Prepared and converted by Bill Claff.
PFIL 0 0 0
LANG 0
UNIT MM X W X CM MR CPMM
FLOA
ENVD 20 1 0
GFAC 0 0
RAIM 0 2 1 1 0 1 0 0 0
SDMA 0 1 0
FTYP 3 0 3 3 0 0 0
ROPD 2
HYPR 0
PICB 1
XFLN 0 0 0 0 0 0 0 0 0 0 0 0
YFLN 0 9.94 14.2 0 0 0 0 0 0 0 0 0 0
FWGN 1 1 1 1 1 1 1 1 1 1 1 1
VDXN 0 0 0 0 0 0 0 0 0 0 0 0
VDYN 0 0 0 0 0 0 0 0 0 0 0 0
VCXN 0 0 0 0 0 0 0 0 0 0 0 0
VCYN 0 0 0 0 0 0 0 0 0 0 0 0
VANN 0 0 0 0 0 0 0 0 0 0 0 0
WAVM 1 0.4861327 1
WAVM 2 0.5875618 1
WAVM 3 0.6562725 1
WAVM 4 0.550 1
WAVM 5 0.550 1
WAVM 6 0.550 1
WAVM 7 0.550 1
WAVM 8 0.550 1
WAVM 9 0.550 1
WAVM 10 0.550 1
WAVM 11 0.550 1
WAVM 12 0.550 1
WAVM 13 0.550 1
WAVM 14 0.550 1
WAVM 15 0.550 1
WAVM 16 0.550 1
WAVM 17 0.550 1
WAVM 18 0.550 1
WAVM 19 0.550 1
WAVM 20 0.550 1
WAVM 21 0.550 1
WAVM 22 0.550 1
WAVM 23 0.550 1
WAVM 24 0.550 1
PWAV 2
POLS 1 0 1 0 0 1 0
GSTD 0 100 100 100 100 100 100 0 1 1 0 0 1 1 1 1 1 1
NSCD 100 500 0 1.0E-3 5 1.0E-6 0 0 0 0 0 0 1000000 0 2
SURF 0
  TYPE STANDARD
  CURV 0.0 0 0 0 0 ""
  HIDE 0 0 0 0 0 0 0 0 0 0
  MIRR 2 0
  DISZ INFINITY
  DIAM 0 1 0 0 1 ""
  POPS 0 0 0 0 0 0 0 0 1 1 1 1 0 0 0 0
SURF 1
  TYPE STANDARD
  CURV 0.023350028603785 0 0 0 0
  HIDE 0 0 0 0 0 0 0 0 0 0
  MIRR 2 0
  DISZ  0.9
  GLAS  ___BLANK 1 0 1.94594 17.98 0 0 0 0 0 0
  DIAM  19.985 1 0 0 1 ""
  POPS 0 0 0 0 0 0 0 0 1 1 1 1 0 0 0 0
SURF 2
  TYPE STANDARD
  CURV 0.0311410064773293 0 0 0 0
  HIDE 0 0 0 0 0 0 0 0 0 0
  MIRR 2 0
  DISZ  6.7513
  GLAS  ___BLANK 1 0 1.80420 46.50 0 0 0 0 0 0
  DIAM  18.765 1 0 0 1 ""
  POPS 0 0 0 0 0 0 0 0 1 1 1 1 0 0 0 0
SURF 3
  TYPE STANDARD
  CURV 0.00422163053724892 0 0 0 0
  HIDE 0 0 0 0 0 0 0 0 0 0
  MIRR 2 0
  DISZ  1.2
  DIAM  18.475 1 0 0 1 ""
  POPS 0 0 0 0 0 0 0 0 1 1 1 1 0 0 0 0
SURF 4
  TYPE EVENASPH
  CURV 0.00842403207871416 0 0 0 0
  HIDE 0 0 0 0 0 0 0 0 0 0
  MIRR 2 0
  PARM 1 0
  PARM 2 1.49512E-05
  PARM 3 -8.38070E-08
  PARM 4 1.22552E-09
  PARM 5 -1.12664E-11
  PARM 6 5.79424E-14
  PARM 7 -1.17463E-16
  PARM 8 0
  DISZ  1.3585
  CONI  0
  GLAS  ___BLANK 1 0 1.80610 40.73 0 0 0 0 0 0
  DIAM  12.96 1 0 0 1 ""
  POPS 0 0 0 0 0 0 0 0 1 1 1 1 0 0 0 0
SURF 5
  TYPE STANDARD
  CURV 0.0760184572814279 0 0 0 0
  HIDE 0 0 0 0 0 0 0 0 0 0
  MIRR 2 0
  DISZ  5.3647
  DIAM  9.305 1 0 0 1 ""
  POPS 0 0 0 0 0 0 0 0 1 1 1 1 0 0 0 0
SURF 6
  TYPE STANDARD
  CURV -0.0333433363342336 0 0 0 0
  HIDE 0 0 0 0 0 0 0 0 0 0
  MIRR 2 0
  DISZ  1.8181
  GLAS  ___BLANK 1 0 1.61340 44.27 0 0 0 0 0 0
  DIAM  9.305 1 0 0 1 ""
  POPS 0 0 0 0 0 0 0 0 1 1 1 1 0 0 0 0
SURF 7
  TYPE STANDARD
  CURV 0.0580342634291286 0 0 0 0
  HIDE 0 0 0 0 0 0 0 0 0 0
  MIRR 2 0
  DISZ  4.1672
  GLAS  ___BLANK 1 0 1.92119 23.96 0 0 0 0 0 0
  DIAM  8.595 1 0 0 1 ""
  POPS 0 0 0 0 0 0 0 0 1 1 1 1 0 0 0 0
SURF 8
  TYPE STANDARD
  CURV -0.0108044916432659 0 0 0 0
  HIDE 0 0 0 0 0 0 0 0 0 0
  MIRR 2 0
  DISZ  2.4941
  DIAM  8.275 1 0 0 1 ""
  POPS 0 0 0 0 0 0 0 0 1 1 1 1 0 0 0 0
SURF 9
  TYPE STANDARD
  CURV -0.0607496506895085 0 0 0 0
  HIDE 0 0 0 0 0 0 0 0 0 0
  MIRR 2 0
  DISZ  0.9
  GLAS  ___BLANK 1 0 1.87070 40.73 0 0 0 0 0 0
  DIAM  7.45 1 0 0 1 ""
  POPS 0 0 0 0 0 0 0 0 1 1 1 1 0 0 0 0
SURF 10
  TYPE STANDARD
  CURV -0.0395864012794325 0 0 0 0
  HIDE 0 0 0 0 0 0 0 0 0 0
  MIRR 2 0
  DISZ  12.5837
  DIAM  8.575 1 0 0 1 ""
  POPS 0 0 0 0 0 0 0 0 1 1 1 1 0 0 0 0
SURF 11
  STOP
  TYPE STANDARD
  CURV 0 0 0 0 0
  HIDE 0 0 0 0 0 0 0 0 0 0
  MIRR 2 0
  DISZ  1.2
  DIAM  6.0515 1 0 0 1 ""
  POPS 0 0 0 0 0 0 0 0 1 1 1 1 0 0 0 0
SURF 12
  TYPE EVENASPH
  CURV 0.0499612800079938 0 0 0 0
  HIDE 0 0 0 0 0 0 0 0 0 0
  MIRR 2 0
  PARM 1 0
  PARM 2 -1.91316E-05
  PARM 3 -1.95137E-08
  PARM 4 8.53884E-10
  PARM 5 -5.43404E-11
  PARM 6 7.91011E-13
  PARM 7 -4.65712E-15
  PARM 8 0
  DISZ  5.091
  CONI  0
  GLAS  ___BLANK 1 0 1.77250 49.50 0 0 0 0 0 0
  DIAM  10.065 1 0 0 1 ""
  POPS 0 0 0 0 0 0 0 0 1 1 1 1 0 0 0 0
SURF 13
  TYPE XASPHERE
  CURV -0.0188234231147871 0 0 0 0
  HIDE 0 0 0 0 0 0 0 0 0 0
  MIRR 2 0
  PARM 1 0
  PARM 2 2.14700E-05
  PARM 3 -4.77121E-08
  PARM 4 5.31147E-09
  PARM 5 -2.42226E-10
  PARM 6 4.31649E-12
  PARM 7 -3.63505E-14
  PARM 8 1.09048E-16
  DISZ  0.3
  CONI  0
  DIAM  10.065 1 0 0 1 ""
  POPS 0 0 0 0 0 0 0 0 1 1 1 1 0 0 0 0
SURF 14
  TYPE STANDARD
  CURV 0.00184626416753887 0 0 0 0
  HIDE 0 0 0 0 0 0 0 0 0 0
  MIRR 2 0
  DISZ  1.9439
  GLAS  ___BLANK 1 0 1.77047 29.74 0 0 0 0 0 0
  DIAM  10.285 1 0 0 1 ""
  POPS 0 0 0 0 0 0 0 0 1 1 1 1 0 0 0 0
SURF 15
  TYPE STANDARD
  CURV 0.0757805395574417 0 0 0 0
  HIDE 0 0 0 0 0 0 0 0 0 0
  MIRR 2 0
  DISZ  3.5741
  GLAS  ___BLANK 1 0 1.49700 81.61 0 0 0 0 0 0
  DIAM  9.205 1 0 0 1 ""
  POPS 0 0 0 0 0 0 0 0 1 1 1 1 0 0 0 0
SURF 16
  TYPE STANDARD
  CURV 0.0353144754034679 0 0 0 0
  HIDE 0 0 0 0 0 0 0 0 0 0
  MIRR 2 0
  DISZ  3.2611
  DIAM  8.74 1 0 0 1 ""
  POPS 0 0 0 0 0 0 0 0 1 1 1 1 0 0 0 0
SURF 17
  TYPE XASPHERE
  CURV 0.0354721880309743 0 0 0 0
  HIDE 0 0 0 0 0 0 0 0 0 0
  MIRR 2 0
  PARM 1 0
  PARM 2 -2.43690E-05
  PARM 3 3.11757E-08
  PARM 4 6.23673E-09
  PARM 5 -1.42166E-10
  PARM 6 1.28926E-12
  PARM 7 5.95585E-15
  PARM 8 -8.51106E-17
  DISZ  5.0638
  CONI  0
  GLAS  ___BLANK 1 0 1.59271 66.97 0 0 0 0 0 0
  DIAM  9.765 1 0 0 1 ""
  POPS 0 0 0 0 0 0 0 0 1 1 1 1 0 0 0 0
SURF 18
  TYPE XASPHERE
  CURV -0.0500217594653674 0 0 0 0
  HIDE 0 0 0 0 0 0 0 0 0 0
  MIRR 2 0
  PARM 1 0
  PARM 2 1.91466E-05
  PARM 3 1.34675E-08
  PARM 4 -3.84774E-09
  PARM 5 2.92881E-10
  PARM 6 -7.35499E-12
  PARM 7 8.89316E-14
  PARM 8 -3.95053E-16
  DISZ  1.65
  CONI  0
  DIAM  9.765 1 0 0 1 ""
  POPS 0 0 0 0 0 0 0 0 1 1 1 1 0 0 0 0
SURF 19
  TYPE STANDARD
  CURV 0.0148626836656134 0 0 0 0
  HIDE 0 0 0 0 0 0 0 0 0 0
  MIRR 2 0
  DISZ  0.9
  GLAS  ___BLANK 1 0 1.74330 49.22 0 0 0 0 0 0
  DIAM  8.285 1 0 0 1 ""
  POPS 0 0 0 0 0 0 0 0 1 1 1 1 0 0 0 0
SURF 20
  TYPE STANDARD
  CURV 0.0452720169136255 0 0 0 0
  HIDE 0 0 0 0 0 0 0 0 0 0
  MIRR 2 0
  DISZ  8.7454
  DIAM  7.9 1 0 0 1 ""
  POPS 0 0 0 0 0 0 0 0 1 1 1 1 0 0 0 0
SURF 21
  TYPE STANDARD
  CURV -0.00389792731612892 0 0 0 0
  HIDE 0 0 0 0 0 0 0 0 0 0
  MIRR 2 0
  DISZ  0.8
  GLAS  ___BLANK 1 0 1.62004 36.30 0 0 0 0 0 0
  DIAM  11.045 1 0 0 1 ""
  POPS 0 0 0 0 0 0 0 0 1 1 1 1 0 0 0 0
SURF 22
  TYPE STANDARD
  CURV 0.00420568844596447 0 0 0 0
  HIDE 0 0 0 0 0 0 0 0 0 0
  MIRR 2 0
  DISZ  0.8117
  DIAM  11.595 1 0 0 1 ""
  POPS 0 0 0 0 0 0 0 0 1 1 1 1 0 0 0 0
SURF 23
  TYPE STANDARD
  CURV 0.00265574130105297 0 0 0 0
  HIDE 0 0 0 0 0 0 0 0 0 0
  MIRR 2 0
  DISZ  3.2855
  GLAS  ___BLANK 1 0 1.72916 54.67 0 0 0 0 0 0
  DIAM  14.5 1 0 0 1 ""
  POPS 0 0 0 0 0 0 0 0 1 1 1 1 0 0 0 0
SURF 24
  TYPE STANDARD
  CURV -0.0175331551964765 0 0 0 0
  HIDE 0 0 0 0 0 0 0 0 0 0
  MIRR 2 0
  DISZ  17.6476
  DIAM  14.5 1 0 0 1 ""
  POPS 0 0 0 0 0 0 0 0 1 1 1 1 0 0 0 0
SURF 25
  TYPE STANDARD
  CURV 0.0 0 0 0 0 ""
  HIDE 0 0 0 0 0 0 0 0 0 0
  MIRR 2 0
  DISZ 0
  DIAM 14.2 1 0 0 1 ""
  POPS 0 0 0 0 0 0 0 0 1 1 1 1 0 0 0 0
TOL TOFF   0   0              0              0   0 0 0 0
MNUM 6 1
SDIA   11   1 6.0515 0 0 0 1 1 1 0 0
SDIA   11   2 6.7815 0 0 0 1 1 1 0 0
SDIA   11   3 8.1475 0 0 0 1 1 1 0 0
SDIA   11   4 6.0515 0 0 0 1 1 1 0 0
SDIA   11   5 6.7815 0 0 0 1 1 1 0 0
SDIA   11   6 8.1475 0 0 0 1 1 1 0 0
THIC   0   1 1.00E+10 0 0 0 1 1 1 0 0
THIC   0   2 1.00E+10 0 0 0 1 1 1 0 0
THIC   0   3 1.00E+10 0 0 0 1 1 1 0 0
THIC   0   4 717.1933 0 0 0 1 1 1 0 0
THIC   0   5 1147.0029 0 0 0 1 1 1 0 0
THIC   0   6 1889.8534 0 0 0 1 1 1 0 0
THIC   3   1 1.2000 0 0 0 1 1 1 0 0
THIC   3   2 9.3728 0 0 0 1 1 1 0 0
THIC   3   3 18.0097 0 0 0 1 1 1 0 0
THIC   3   4 1.2000 0 0 0 1 1 1 0 0
THIC   3   5 9.3728 0 0 0 1 1 1 0 0
THIC   3   6 18.0097 0 0 0 1 1 1 0 0
THIC   10   1 12.5837 0 0 0 1 1 1 0 0
THIC   10   2 4.9338 0 0 0 1 1 1 0 0
THIC   10   3 1.7000 0 0 0 1 1 1 0 0
THIC   10   4 12.5837 0 0 0 1 1 1 0 0
THIC   10   5 4.9338 0 0 0 1 1 1 0 0
THIC   10   6 1.7000 0 0 0 1 1 1 0 0
THIC   18   1 1.6500 0 0 0 1 1 1 0 0
THIC   18   2 3.7580 0 0 0 1 1 1 0 0
THIC   18   3 1.9555 0 0 0 1 1 1 0 0
THIC   18   4 1.9879 0 0 0 1 1 1 0 0
THIC   18   5 4.2407 0 0 0 1 1 1 0 0
THIC   18   6 2.4675 0 0 0 1 1 1 0 0
THIC   20   1 8.7454 0 0 0 1 1 1 0 0
THIC   20   2 6.6374 0 0 0 1 1 1 0 0
THIC   20   3 8.4400 0 0 0 1 1 1 0 0
THIC   20   4 8.4075 0 0 0 1 1 1 0 0
THIC   20   5 6.1547 0 0 0 1 1 1 0 0
THIC   20   6 7.9279 0 0 0 1 1 1 0 0
THIC   22   1 0.8117 0 0 0 1 1 1 0 0
THIC   22   2 6.4772 0 0 0 1 1 1 0 0
THIC   22   3 17.2206 0 0 0 1 1 1 0 0
THIC   22   4 0.8117 0 0 0 1 1 1 0 0
THIC   22   5 6.4772 0 0 0 1 1 1 0 0
THIC   22   6 17.2206 0 0 0 1 1 1 0 0
THIC   24   1 17.6476 0 0 0 1 1 1 0 0
THIC   24   2 17.6476 0 0 0 1 1 1 0 0
THIC   24   3 17.6476 0 0 0 1 1 1 0 0
THIC   24   4 17.6476 0 0 0 1 1 1 0 0
THIC   24   5 17.6476 0 0 0 1 1 1 0 0
THIC   24   6 17.6476 0 0 0 1 1 1 0 0
