VERS 161019 507 33785
MODE SEQ
NAME US 4,396,256 Example 1 (Nikon AI Nikkor 85mm f/1.4S)
NOTE 0 Prepared and converted by Bill Claff.
PFIL 0 0 0
LANG 0
UNIT MM X W X CM MR CPMM
FLOA
ENVD 20 1 0
GFAC 0 0
RAIM 0 2 1 1 0 1 0 0 0
SDMA 0 1 0
FTYP 3 0 3 3 0 0 0
ROPD 2
HYPR 0
PICB 1
XFLN 0 0 0 0 0 0 0 0 0 0 0 0
YFLN 0 15.12 21.6 0 0 0 0 0 0 0 0 0 0
FWGN 1 1 1 1 1 1 1 1 1 1 1 1
VDXN 0 0 0 0 0 0 0 0 0 0 0 0
VDYN 0 0 0 0 0 0 0 0 0 0 0 0
VCXN 0 0 0 0 0 0 0 0 0 0 0 0
VCYN 0 0 0 0 0 0 0 0 0 0 0 0
VANN 0 0 0 0 0 0 0 0 0 0 0 0
WAVM 1 0.4861327 1
WAVM 2 0.5875618 1
WAVM 3 0.6562725 1
WAVM 4 0.550 1
WAVM 5 0.550 1
WAVM 6 0.550 1
WAVM 7 0.550 1
WAVM 8 0.550 1
WAVM 9 0.550 1
WAVM 10 0.550 1
WAVM 11 0.550 1
WAVM 12 0.550 1
WAVM 13 0.550 1
WAVM 14 0.550 1
WAVM 15 0.550 1
WAVM 16 0.550 1
WAVM 17 0.550 1
WAVM 18 0.550 1
WAVM 19 0.550 1
WAVM 20 0.550 1
WAVM 21 0.550 1
WAVM 22 0.550 1
WAVM 23 0.550 1
WAVM 24 0.550 1
PWAV 2
POLS 1 0 1 0 0 1 0
GSTD 0 100 100 100 100 100 100 0 1 1 0 0 1 1 1 1 1 1
NSCD 100 500 0 1.0E-3 5 1.0E-6 0 0 0 0 0 0 1000000 0 2
SURF 0
  TYPE STANDARD
  CURV 0.0 0 0 0 0 ""
  HIDE 0 0 0 0 0 0 0 0 0 0
  MIRR 2 0
  DISZ INFINITY
  DIAM 0 1 0 0 1 ""
  POPS 0 0 0 0 0 0 0 0 1 1 1 1 0 0 0 0
SURF 1
  TYPE STANDARD
  CURV 0.0150520801974833 0 0 0 0
  HIDE 0 0 0 0 0 0 0 0 0 0
  MIRR 2 0
  DISZ  7.497
  GLAS  ___BLANK 1 0 1.77279 49.4 0 0 0 0 0 0
  DIAM  30.395 1 0 0 1 ""
  POPS 0 0 0 0 0 0 0 0 1 1 1 1 0 0 0 0
SURF 2
  TYPE STANDARD
  CURV 0.00288520352225646 0 0 0 0
  HIDE 0 0 0 0 0 0 0 0 0 0
  MIRR 2 0
  DISZ  1.496
  DIAM  30.395 1 0 0 1 ""
  POPS 0 0 0 0 0 0 0 0 1 1 1 1 0 0 0 0
SURF 3
  TYPE STANDARD
  CURV 0.0269338504632622 0 0 0 0
  HIDE 0 0 0 0 0 0 0 0 0 0
  MIRR 2 0
  DISZ  9.6985
  GLAS  ___BLANK 1 0 1.69680 55.6 0 0 0 0 0 0
  DIAM  26.455 1 0 0 1 ""
  POPS 0 0 0 0 0 0 0 0 1 1 1 1 0 0 0 0
SURF 4
  TYPE STANDARD
  CURV 0.0103626406080798 0 0 0 0
  HIDE 0 0 0 0 0 0 0 0 0 0
  MIRR 2 0
  DISZ  1.496
  DIAM  25.53 1 0 0 1 ""
  POPS 0 0 0 0 0 0 0 0 1 1 1 1 0 0 0 0
SURF 5
  TYPE STANDARD
  CURV 0.00597800095648015 0 0 0 0
  HIDE 0 0 0 0 0 0 0 0 0 0
  MIRR 2 0
  DISZ  6.5025
  GLAS  ___BLANK 1 0 1.78470 26.1 0 0 0 0 0 0
  DIAM  25.53 1 0 0 1 ""
  POPS 0 0 0 0 0 0 0 0 1 1 1 1 0 0 0 0
SURF 6
  TYPE STANDARD
  CURV -0.0083331250052082 0 0 0 0
  HIDE 0 0 0 0 0 0 0 0 0 0
  MIRR 2 0
  DISZ  2.7965
  GLAS  ___BLANK 1 0 1.75520 27.5 0 0 0 0 0 0
  DIAM  25.53 1 0 0 1 ""
  POPS 0 0 0 0 0 0 0 0 1 1 1 1 0 0 0 0
SURF 7
  TYPE STANDARD
  CURV 0.0423038686887916 0 0 0 0
  HIDE 0 0 0 0 0 0 0 0 0 0
  MIRR 2 0
  DISZ  11.799
  DIAM  18.13 1 0 0 1 ""
  POPS 0 0 0 0 0 0 0 0 1 1 1 1 0 0 0 0
SURF 8
  STOP
  TYPE STANDARD
  CURV 0 0 0 0 0
  HIDE 0 0 0 0 0 0 0 0 0 0
  MIRR 2 0
  DISZ  7.7
  DIAM  17.122 1 0 0 1 ""
  POPS 0 0 0 0 0 0 0 0 1 1 1 1 0 0 0 0
SURF 9
  TYPE STANDARD
  CURV -0.0318395287749741 0 0 0 0
  HIDE 0 0 0 0 0 0 0 0 0 0
  MIRR 2 0
  DISZ  1.496
  GLAS  ___BLANK 1 0 1.58144 40.8 0 0 0 0 0 0
  DIAM  17.57 1 0 0 1 ""
  POPS 0 0 0 0 0 0 0 0 1 1 1 1 0 0 0 0
SURF 10
  TYPE STANDARD
  CURV 0.0125303076817051 0 0 0 0
  HIDE 0 0 0 0 0 0 0 0 0 0
  MIRR 2 0
  DISZ  8.704
  GLAS  ___BLANK 1 0 1.74443 49.4 0 0 0 0 0 0
  DIAM  19.4 1 0 0 1 ""
  POPS 0 0 0 0 0 0 0 0 1 1 1 1 0 0 0 0
SURF 11
  TYPE STANDARD
  CURV -0.0251221564859128 0 0 0 0
  HIDE 0 0 0 0 0 0 0 0 0 0
  MIRR 2 0
  DISZ  0.3995
  DIAM  19.4 1 0 0 1 ""
  POPS 0 0 0 0 0 0 0 0 1 1 1 1 0 0 0 0
SURF 12
  TYPE STANDARD
  CURV 0.00943365077568194 0 0 0 0
  HIDE 0 0 0 0 0 0 0 0 0 0
  MIRR 2 0
  DISZ  4.8025
  GLAS  ___BLANK 1 0 1.74443 49.4 0 0 0 0 0 0
  DIAM  17.02 1 0 0 1 ""
  POPS 0 0 0 0 0 0 0 0 1 1 1 1 0 0 0 0
SURF 13
  TYPE STANDARD
  CURV -0.00310168886958949 0 0 0 0
  HIDE 0 0 0 0 0 0 0 0 0 0
  MIRR 2 0
  DISZ  42.6275
  DIAM  16.45 1 0 0 1 ""
  POPS 0 0 0 0 0 0 0 0 1 1 1 1 0 0 0 0
SURF 14
  TYPE STANDARD
  CURV 0.0 0 0 0 0 ""
  HIDE 0 0 0 0 0 0 0 0 0 0
  MIRR 2 0
  DISZ 0
  DIAM 21.6 1 0 0 1 ""
  POPS 0 0 0 0 0 0 0 0 1 1 1 1 0 0 0 0
TOL TOFF   0   0              0              0   0 0 0 0
MNUM 1 1
