VERS 161019 507 33785
MODE SEQ
NAME US 2015/0177500 Example 1 (Fujifilm Fujinon XF18-55mm F2.8-4 R LM OIS)
NOTE 0 Prepared and converted by Bill Claff.
PFIL 0 0 0
LANG 0
UNIT MM X W X CM MR CPMM
FLOA
ENVD 20 1 0
GFAC 0 0
RAIM 0 2 1 1 0 1 0 0 0
SDMA 0 1 0
FTYP 3 0 3 3 0 0 0
ROPD 2
HYPR 0
PICB 1
XFLN 0 0 0 0 0 0 0 0 0 0 0 0
YFLN 0 9.94 14.2 0 0 0 0 0 0 0 0 0 0
FWGN 1 1 1 1 1 1 1 1 1 1 1 1
VDXN 0 0 0 0 0 0 0 0 0 0 0 0
VDYN 0 0 0 0 0 0 0 0 0 0 0 0
VCXN 0 0 0 0 0 0 0 0 0 0 0 0
VCYN 0 0 0 0 0 0 0 0 0 0 0 0
VANN 0 0 0 0 0 0 0 0 0 0 0 0
WAVM 1 0.4861327 1
WAVM 2 0.5875618 1
WAVM 3 0.6562725 1
WAVM 4 0.550 1
WAVM 5 0.550 1
WAVM 6 0.550 1
WAVM 7 0.550 1
WAVM 8 0.550 1
WAVM 9 0.550 1
WAVM 10 0.550 1
WAVM 11 0.550 1
WAVM 12 0.550 1
WAVM 13 0.550 1
WAVM 14 0.550 1
WAVM 15 0.550 1
WAVM 16 0.550 1
WAVM 17 0.550 1
WAVM 18 0.550 1
WAVM 19 0.550 1
WAVM 20 0.550 1
WAVM 21 0.550 1
WAVM 22 0.550 1
WAVM 23 0.550 1
WAVM 24 0.550 1
PWAV 2
POLS 1 0 1 0 0 1 0
GSTD 0 100 100 100 100 100 100 0 1 1 0 0 1 1 1 1 1 1
NSCD 100 500 0 1.0E-3 5 1.0E-6 0 0 0 0 0 0 1000000 0 2
SURF 0
  TYPE STANDARD
  CURV 0.0 0 0 0 0 ""
  HIDE 0 0 0 0 0 0 0 0 0 0
  MIRR 2 0
  DISZ INFINITY
  DIAM 0 1 0 0 1 ""
  POPS 0 0 0 0 0 0 0 0 1 1 1 1 0 0 0 0
SURF 1
  TYPE STANDARD
  CURV 0.0194018035916619 0 0 0 0
  HIDE 0 0 0 0 0 0 0 0 0 0
  MIRR 2 0
  DISZ  1.35
  GLAS  ___BLANK 1 0 1.92286 18.90 0 0 0 0 0 0
  DIAM  20.76 1 0 0 1 ""
  POPS 0 0 0 0 0 0 0 0 1 1 1 1 0 0 0 0
SURF 2
  TYPE STANDARD
  CURV 0.0285143997718848 0 0 0 0
  HIDE 0 0 0 0 0 0 0 0 0 0
  MIRR 2 0
  DISZ  6.59
  GLAS  ___BLANK 1 0 1.83481 42.73 0 0 0 0 0 0
  DIAM  19.17 1 0 0 1 ""
  POPS 0 0 0 0 0 0 0 0 1 1 1 1 0 0 0 0
SURF 3
  TYPE STANDARD
  CURV 0.00477321273015835 0 0 0 0
  HIDE 0 0 0 0 0 0 0 0 0 0
  MIRR 2 0
  DISZ  0.6
  DIAM  19.17 1 0 0 1 ""
  POPS 0 0 0 0 0 0 0 0 1 1 1 1 0 0 0 0
SURF 4
  TYPE STANDARD
  CURV 0.00799531794181328 0 0 0 0
  HIDE 0 0 0 0 0 0 0 0 0 0
  MIRR 2 0
  DISZ  1
  GLAS  ___BLANK 1 0 1.62041 60.29 0 0 0 0 0 0
  DIAM  13.93 1 0 0 1 ""
  POPS 0 0 0 0 0 0 0 0 1 1 1 1 0 0 0 0
SURF 5
  TYPE STANDARD
  CURV 0.0938826091854745 0 0 0 0
  HIDE 0 0 0 0 0 0 0 0 0 0
  MIRR 2 0
  DISZ  7
  DIAM  9.595 1 0 0 1 ""
  POPS 0 0 0 0 0 0 0 0 1 1 1 1 0 0 0 0
SURF 6
  TYPE XOSPHERE
  CURV -0.00736127132100222 0 0 0 0
  HIDE 0 0 0 0 0 0 0 0 0 0
  MIRR 2 0
  XDAT 1 20 0 0 1 0 0 ""
  XDAT 2 1 0 0 1 0 0 ""
  XDAT 3 0 0 0 1 0 0 ""
  XDAT 4 0 0 0 1 0 0 ""
  XDAT 5 2.8680435E-04 0 0 1 0 0 ""
  XDAT 6 -3.9606900E-04 0 0 1 0 0 ""
  XDAT 7 9.6790033E-05 0 0 1 0 0 ""
  XDAT 8 -1.0299938E-05 0 0 1 0 0 ""
  XDAT 9 -4.7183893E-08 0 0 1 0 0 ""
  XDAT 10 4.8830620E-08 0 0 1 0 0 ""
  XDAT 11 2.8165954E-09 0 0 1 0 0 ""
  XDAT 12 -7.8456146E-11 0 0 1 0 0 ""
  XDAT 13 -1.9153122E-11 0 0 1 0 0 ""
  XDAT 14 -1.6490387E-12 0 0 1 0 0 ""
  XDAT 15 -2.8876807E-14 0 0 1 0 0 ""
  XDAT 16 -3.1702830E-15 0 0 1 0 0 ""
  XDAT 17 -7.1431744E-16 0 0 1 0 0 ""
  XDAT 18 -4.2397046E-17 0 0 1 0 0 ""
  XDAT 19 -1.1404544E-17 0 0 1 0 0 ""
  XDAT 20 5.7084738E-18 0 0 1 0 0 ""
  XDAT 21 5.4911330E-19 0 0 1 0 0 ""
  XDAT 22 -7.6120916E-20 0 0 1 0 0 ""
  DISZ  1.05
  CONI  0
  GLAS  ___BLANK 1 0 1.69098 52.95 0 0 0 0 0 0
  DIAM  9.18 1 0 0 1 ""
  POPS 0 0 0 0 0 0 0 0 1 1 1 1 0 0 0 0
SURF 7
  TYPE XOSPHERE
  CURV 0.0278447598946354 0 0 0 0
  HIDE 0 0 0 0 0 0 0 0 0 0
  MIRR 2 0
  XDAT 1 20 0 0 1 0 0 ""
  XDAT 2 1 0 0 1 0 0 ""
  XDAT 3 0 0 0 1 0 0 ""
  XDAT 4 0 0 0 1 0 0 ""
  XDAT 5 1.4710535E-05 0 0 1 0 0 ""
  XDAT 6 -2.5234353E-04 0 0 1 0 0 ""
  XDAT 7 4.6561754E-05 0 0 1 0 0 ""
  XDAT 8 -1.8863447E-06 0 0 1 0 0 ""
  XDAT 9 -6.6117816E-07 0 0 1 0 0 ""
  XDAT 10 8.2982647E-09 0 0 1 0 0 ""
  XDAT 11 8.5750395E-09 0 0 1 0 0 ""
  XDAT 12 6.6105996E-10 0 0 1 0 0 ""
  XDAT 13 -2.5092683E-11 0 0 1 0 0 ""
  XDAT 14 -1.1264706E-11 0 0 1 0 0 ""
  XDAT 15 -1.2106212E-12 0 0 1 0 0 ""
  XDAT 16 -1.1330751E-14 0 0 1 0 0 ""
  XDAT 17 1.2237835E-14 0 0 1 0 0 ""
  XDAT 18 1.9833659E-15 0 0 1 0 0 ""
  XDAT 19 9.1340677E-17 0 0 1 0 0 ""
  XDAT 20 -1.8548064E-17 0 0 1 0 0 ""
  XDAT 21 -3.0052754E-18 0 0 1 0 0 ""
  XDAT 22 2.3872349E-19 0 0 1 0 0 ""
  DISZ  0.1
  CONI  0
  DIAM  9.18 1 0 0 1 ""
  POPS 0 0 0 0 0 0 0 0 1 1 1 1 0 0 0 0
SURF 8
  TYPE STANDARD
  CURV 0.035160013220165 0 0 0 0
  HIDE 0 0 0 0 0 0 0 0 0 0
  MIRR 2 0
  DISZ  2.2
  GLAS  ___BLANK 1 0 1.92286 18.90 0 0 0 0 0 0
  DIAM  9.035 1 0 0 1 ""
  POPS 0 0 0 0 0 0 0 0 1 1 1 1 0 0 0 0
SURF 9
  TYPE STANDARD
  CURV 0.0120872798301979 0 0 0 0
  HIDE 0 0 0 0 0 0 0 0 0 0
  MIRR 2 0
  DISZ  13.8
  DIAM  9.035 1 0 0 1 ""
  POPS 0 0 0 0 0 0 0 0 1 1 1 1 0 0 0 0
SURF 10
  STOP
  TYPE STANDARD
  CURV 0 0 0 0 0
  HIDE 0 0 0 0 0 0 0 0 0 0
  MIRR 2 0
  DISZ  1.3
  DIAM  5.819 1 0 0 1 ""
  POPS 0 0 0 0 0 0 0 0 1 1 1 1 0 0 0 0
SURF 11
  TYPE XOSPHERE
  CURV 0.0499570369482245 0 0 0 0
  HIDE 0 0 0 0 0 0 0 0 0 0
  MIRR 2 0
  XDAT 1 20 0 0 1 0 0 ""
  XDAT 2 1 0 0 1 0 0 ""
  XDAT 3 0 0 0 1 0 0 ""
  XDAT 4 0 0 0 1 0 0 ""
  XDAT 5 7.3438711E-05 0 0 1 0 0 ""
  XDAT 6 -9.4826486E-05 0 0 1 0 0 ""
  XDAT 7 4.8179429E-05 0 0 1 0 0 ""
  XDAT 8 -8.0733758E-06 0 0 1 0 0 ""
  XDAT 9 -1.8747216E-06 0 0 1 0 0 ""
  XDAT 10 9.2289795E-07 0 0 1 0 0 ""
  XDAT 11 -1.0322294E-07 0 0 1 0 0 ""
  XDAT 12 2.4327727E-09 0 0 1 0 0 ""
  XDAT 13 -9.9236793E-10 0 0 1 0 0 ""
  XDAT 14 1.2442535E-11 0 0 1 0 0 ""
  XDAT 15 3.1439069E-11 0 0 1 0 0 ""
  XDAT 16 3.7267059E-12 0 0 1 0 0 ""
  XDAT 17 -3.3950388E-13 0 0 1 0 0 ""
  XDAT 18 -7.3787814E-14 0 0 1 0 0 ""
  XDAT 19 -1.5506159E-14 0 0 1 0 0 ""
  XDAT 20 1.7800306E-16 0 0 1 0 0 ""
  XDAT 21 6.1454204E-16 0 0 1 0 0 ""
  XDAT 22 -4.1314580E-17 0 0 1 0 0 ""
  DISZ  2.8
  CONI  0
  GLAS  ___BLANK 1 0 1.80348 40.44 0 0 0 0 0 0
  DIAM  6.94 1 0 0 1 ""
  POPS 0 0 0 0 0 0 0 0 1 1 1 1 0 0 0 0
SURF 12
  TYPE XOSPHERE
  CURV -0.00885045039942083 0 0 0 0
  HIDE 0 0 0 0 0 0 0 0 0 0
  MIRR 2 0
  XDAT 1 20 0 0 1 0 0 ""
  XDAT 2 1 0 0 1 0 0 ""
  XDAT 3 0 0 0 1 0 0 ""
  XDAT 4 0 0 0 1 0 0 ""
  XDAT 5 1.5350520E-04 0 0 1 0 0 ""
  XDAT 6 -1.1234510E-05 0 0 1 0 0 ""
  XDAT 7 -2.7955827E-05 0 0 1 0 0 ""
  XDAT 8 2.5344483E-05 0 0 1 0 0 ""
  XDAT 9 -5.7895894E-06 0 0 1 0 0 ""
  XDAT 10 2.7149949E-07 0 0 1 0 0 ""
  XDAT 11 -7.7087474E-09 0 0 1 0 0 ""
  XDAT 12 1.9673684E-08 0 0 1 0 0 ""
  XDAT 13 -3.2960969E-10 0 0 1 0 0 ""
  XDAT 14 -4.9795800E-10 0 0 1 0 0 ""
  XDAT 15 -7.1976033E-11 0 0 1 0 0 ""
  XDAT 16 7.4278993E-12 0 0 1 0 0 ""
  XDAT 17 6.0588979E-12 0 0 1 0 0 ""
  XDAT 18 -8.0903072E-13 0 0 1 0 0 ""
  XDAT 19 -1.5774630E-14 0 0 1 0 0 ""
  XDAT 20 -1.1585061E-15 0 0 1 0 0 ""
  XDAT 21 1.3703794E-15 0 0 1 0 0 ""
  XDAT 22 -8.5615323E-17 0 0 1 0 0 ""
  DISZ  0.41
  CONI  0
  DIAM  6.61 1 0 0 1 ""
  POPS 0 0 0 0 0 0 0 0 1 1 1 1 0 0 0 0
SURF 13
  TYPE STANDARD
  CURV -0.0217184978618139 0 0 0 0
  HIDE 0 0 0 0 0 0 0 0 0 0
  MIRR 2 0
  DISZ  0.7
  GLAS  ___BLANK 1 0 1.67270 32.10 0 0 0 0 0 0
  DIAM  6.61 1 0 0 1 ""
  POPS 0 0 0 0 0 0 0 0 1 1 1 1 0 0 0 0
SURF 14
  TYPE STANDARD
  CURV 0.0595876534382076 0 0 0 0
  HIDE 0 0 0 0 0 0 0 0 0 0
  MIRR 2 0
  DISZ  4.01
  GLAS  ___BLANK 1 0 1.49700 81.54 0 0 0 0 0 0
  DIAM  6.28 1 0 0 1 ""
  POPS 0 0 0 0 0 0 0 0 1 1 1 1 0 0 0 0
SURF 15
  TYPE STANDARD
  CURV -0.0595876534382076 0 0 0 0
  HIDE 0 0 0 0 0 0 0 0 0 0
  MIRR 2 0
  DISZ  2.3
  DIAM  6.28 1 0 0 1 ""
  POPS 0 0 0 0 0 0 0 0 1 1 1 1 0 0 0 0
SURF 16
  TYPE STANDARD
  CURV -0.0395011791101964 0 0 0 0
  HIDE 0 0 0 0 0 0 0 0 0 0
  MIRR 2 0
  DISZ  2.2
  GLAS  ___BLANK 1 0 1.88300 40.76 0 0 0 0 0 0
  DIAM  7.27 1 0 0 1 ""
  POPS 0 0 0 0 0 0 0 0 1 1 1 1 0 0 0 0
SURF 17
  TYPE STANDARD
  CURV -0.0788394828129927 0 0 0 0
  HIDE 0 0 0 0 0 0 0 0 0 0
  MIRR 2 0
  DISZ  0.71
  GLAS  ___BLANK 1 0 1.63930 44.87 0 0 0 0 0 0
  DIAM  7.81 1 0 0 1 ""
  POPS 0 0 0 0 0 0 0 0 1 1 1 1 0 0 0 0
SURF 18
  TYPE STANDARD
  CURV 0.0263207072900463 0 0 0 0
  HIDE 0 0 0 0 0 0 0 0 0 0
  MIRR 2 0
  DISZ  3.82
  DIAM  7.81 1 0 0 1 ""
  POPS 0 0 0 0 0 0 0 0 1 1 1 1 0 0 0 0
SURF 19
  TYPE XOSPHERE
  CURV 0.0371295859679869 0 0 0 0
  HIDE 0 0 0 0 0 0 0 0 0 0
  MIRR 2 0
  XDAT 1 20 0 0 1 0 0 ""
  XDAT 2 1 0 0 1 0 0 ""
  XDAT 3 0 0 0 1 0 0 ""
  XDAT 4 0 0 0 1 0 0 ""
  XDAT 5 1.2573913E-04 0 0 1 0 0 ""
  XDAT 6 -1.3483498E-04 0 0 1 0 0 ""
  XDAT 7 4.5494707E-05 0 0 1 0 0 ""
  XDAT 8 -7.5505829E-06 0 0 1 0 0 ""
  XDAT 9 5.5708415E-07 0 0 1 0 0 ""
  XDAT 10 -7.0799306E-08 0 0 1 0 0 ""
  XDAT 11 2.4324572E-08 0 0 1 0 0 ""
  XDAT 12 -2.5318801E-09 0 0 1 0 0 ""
  XDAT 13 3.1163560E-11 0 0 1 0 0 ""
  XDAT 14 -2.5903722E-11 0 0 1 0 0 ""
  XDAT 15 5.8337715E-12 0 0 1 0 0 ""
  XDAT 16 -9.3756335E-14 0 0 1 0 0 ""
  XDAT 17 -3.8335644E-14 0 0 1 0 0 ""
  XDAT 18 2.2295140E-15 0 0 1 0 0 ""
  XDAT 19 2.0027372E-17 0 0 1 0 0 ""
  XDAT 20 -1.9289346E-18 0 0 1 0 0 ""
  XDAT 21 -9.9096954E-19 0 0 1 0 0 ""
  XDAT 22 6.9998913E-20 0 0 1 0 0 ""
  DISZ  4
  CONI  0
  GLAS  ___BLANK 1 0 1.69098 52.95 0 0 0 0 0 0
  DIAM  8.19 1 0 0 1 ""
  POPS 0 0 0 0 0 0 0 0 1 1 1 1 0 0 0 0
SURF 20
  TYPE XOSPHERE
  CURV -0.0339656607170151 0 0 0 0
  HIDE 0 0 0 0 0 0 0 0 0 0
  MIRR 2 0
  XDAT 1 20 0 0 1 0 0 ""
  XDAT 2 1 0 0 1 0 0 ""
  XDAT 3 0 0 0 1 0 0 ""
  XDAT 4 0 0 0 1 0 0 ""
  XDAT 5 1.1028933E-04 0 0 1 0 0 ""
  XDAT 6 -4.2533206E-05 0 0 1 0 0 ""
  XDAT 7 1.8296780E-05 0 0 1 0 0 ""
  XDAT 8 -4.0469416E-06 0 0 1 0 0 ""
  XDAT 9 1.1053299E-06 0 0 1 0 0 ""
  XDAT 10 -1.8753429E-07 0 0 1 0 0 ""
  XDAT 11 7.5019091E-09 0 0 1 0 0 ""
  XDAT 12 7.7102039E-10 0 0 1 0 0 ""
  XDAT 13 3.0528520E-10 0 0 1 0 0 ""
  XDAT 14 -4.8459994E-11 0 0 1 0 0 ""
  XDAT 15 -2.5038094E-12 0 0 1 0 0 ""
  XDAT 16 -2.2579873E-13 0 0 1 0 0 ""
  XDAT 17 1.8387367E-13 0 0 1 0 0 ""
  XDAT 18 -1.3190284E-14 0 0 1 0 0 ""
  XDAT 19 -8.0764066E-17 0 0 1 0 0 ""
  XDAT 20 6.5915836E-18 0 0 1 0 0 ""
  XDAT 21 1.4602602E-18 0 0 1 0 0 ""
  XDAT 22 -3.2280458E-20 0 0 1 0 0 ""
  DISZ  3.8
  CONI  0
  DIAM  8.19 1 0 0 1 ""
  POPS 0 0 0 0 0 0 0 0 1 1 1 1 0 0 0 0
SURF 21
  TYPE STANDARD
  CURV -0.00698139249458418 0 0 0 0
  HIDE 0 0 0 0 0 0 0 0 0 0
  MIRR 2 0
  DISZ  0.8
  GLAS  ___BLANK 1 0 1.83400 37.16 0 0 0 0 0 0
  DIAM  9.29 1 0 0 1 ""
  POPS 0 0 0 0 0 0 0 0 1 1 1 1 0 0 0 0
SURF 22
  TYPE STANDARD
  CURV 0.0555895269331258 0 0 0 0
  HIDE 0 0 0 0 0 0 0 0 0 0
  MIRR 2 0
  DISZ  2.92
  GLAS  ___BLANK 1 0 1.48749 70.23 0 0 0 0 0 0
  DIAM  9.29 1 0 0 1 ""
  POPS 0 0 0 0 0 0 0 0 1 1 1 1 0 0 0 0
SURF 23
  TYPE STANDARD
  CURV 0.0190639595844057 0 0 0 0
  HIDE 0 0 0 0 0 0 0 0 0 0
  MIRR 2 0
  DISZ  3.3
  DIAM  9.29 1 0 0 1 ""
  POPS 0 0 0 0 0 0 0 0 1 1 1 1 0 0 0 0
SURF 24
  TYPE STANDARD
  CURV 0.0175515885065178 0 0 0 0
  HIDE 0 0 0 0 0 0 0 0 0 0
  MIRR 2 0
  DISZ  3.7
  GLAS  ___BLANK 1 0 1.76200 40.10 0 0 0 0 0 0
  DIAM  14.53 1 0 0 1 ""
  POPS 0 0 0 0 0 0 0 0 1 1 1 1 0 0 0 0
SURF 25
  TYPE STANDARD
  CURV -0.0038457515213793 0 0 0 0
  HIDE 0 0 0 0 0 0 0 0 0 0
  MIRR 2 0
  DISZ  11.83
  DIAM  14.53 1 0 0 1 ""
  POPS 0 0 0 0 0 0 0 0 1 1 1 1 0 0 0 0
SURF 26
  TYPE STANDARD
  CURV 0 0 0 0 0
  HIDE 0 0 0 0 0 0 0 0 0 0
  MIRR 2 0
  DISZ  2.85
  GLAS  ___BLANK 1 0 1.51680 64.20 0 0 0 0 0 0
  DIAM  14.15 1 0 0 1 ""
  POPS 0 0 0 0 0 0 0 0 1 1 1 1 0 0 0 0
SURF 27
  TYPE STANDARD
  CURV 0 0 0 0 0
  HIDE 0 0 0 0 0 0 0 0 0 0
  MIRR 2 0
  DISZ  2.42
  DIAM  14.15 1 0 0 1 ""
  POPS 0 0 0 0 0 0 0 0 1 1 1 1 0 0 0 0
SURF 28
  TYPE STANDARD
  CURV 0.0 0 0 0 0 ""
  HIDE 0 0 0 0 0 0 0 0 0 0
  MIRR 2 0
  DISZ 0
  DIAM 14.2 1 0 0 1 ""
  POPS 0 0 0 0 0 0 0 0 1 1 1 1 0 0 0 0
TOL TOFF   0   0              0              0   0 0 0 0
MNUM 3 1
SDIA   10   1 5.819 0 0 0 1 1 1 0 0
SDIA   10   2 5.693 0 0 0 1 1 1 0 0
SDIA   10   3 5.6175 0 0 0 1 1 1 0 0
THIC   3   1 0.60 0 0 0 1 1 1 0 0
THIC   3   2 12.50 0 0 0 1 1 1 0 0
THIC   3   3 25.01 0 0 0 1 1 1 0 0
THIC   9   1 13.80 0 0 0 1 1 1 0 0
THIC   9   2 6.91 0 0 0 1 1 1 0 0
THIC   9   3 1.58 0 0 0 1 1 1 0 0
THIC   18   1 3.82 0 0 0 1 1 1 0 0
THIC   18   2 1.98 0 0 0 1 1 1 0 0
THIC   18   3 1.52 0 0 0 1 1 1 0 0
THIC   23   1 3.30 0 0 0 1 1 1 0 0
THIC   23   2 12.03 0 0 0 1 1 1 0 0
THIC   23   3 20.41 0 0 0 1 1 1 0 0
