VERS 161019 507 33785
MODE SEQ
NAME US 2022/0011542 Example 1 (Fujifilm Fujinon XF18mm F1.4 R LM WR)
NOTE 0 Prepared and converted by Bill Claff.
PFIL 0 0 0
LANG 0
UNIT MM X W X CM MR CPMM
FNUM 1.44 0
ENVD 20 1 0
GFAC 0 0
RAIM 0 2 1 1 0 1 0 0 0
SDMA 0 1 0
FTYP 3 0 3 3 0 0 0
ROPD 2
HYPR 0
PICB 1
XFLN 0 0 0 0 0 0 0 0 0 0 0 0
YFLN 0 9.94 14.2 0 0 0 0 0 0 0 0 0 0
FWGN 1 1 1 1 1 1 1 1 1 1 1 1
VDXN 0 0 0 0 0 0 0 0 0 0 0 0
VDYN 0 0 0 0 0 0 0 0 0 0 0 0
VCXN 0 0 0 0 0 0 0 0 0 0 0 0
VCYN 0 0 0 0 0 0 0 0 0 0 0 0
VANN 0 0 0 0 0 0 0 0 0 0 0 0
WAVM 1 0.4861327 1
WAVM 2 0.5875618 1
WAVM 3 0.6562725 1
WAVM 4 0.550 1
WAVM 5 0.550 1
WAVM 6 0.550 1
WAVM 7 0.550 1
WAVM 8 0.550 1
WAVM 9 0.550 1
WAVM 10 0.550 1
WAVM 11 0.550 1
WAVM 12 0.550 1
WAVM 13 0.550 1
WAVM 14 0.550 1
WAVM 15 0.550 1
WAVM 16 0.550 1
WAVM 17 0.550 1
WAVM 18 0.550 1
WAVM 19 0.550 1
WAVM 20 0.550 1
WAVM 21 0.550 1
WAVM 22 0.550 1
WAVM 23 0.550 1
WAVM 24 0.550 1
PWAV 2
POLS 1 0 1 0 0 1 0
GSTD 0 100 100 100 100 100 100 0 1 1 0 0 1 1 1 1 1 1
NSCD 100 500 0 1.0E-3 5 1.0E-6 0 0 0 0 0 0 1000000 0 2
SURF 0
  TYPE STANDARD
  CURV 0.0 0 0 0 0 ""
  HIDE 0 0 0 0 0 0 0 0 0 0
  MIRR 2 0
  DISZ INFINITY
  DIAM 0 1 0 0 1 ""
  POPS 0 0 0 0 0 0 0 0 1 1 1 1 0 0 0 0
SURF 1
  TYPE XOSPHERE
  CURV 0.0235257583528205 0 0 0 0
  HIDE 0 0 0 0 0 0 0 0 0 0
  MIRR 2 0
  XDAT 1 16 0 0 1 0 0 ""
  XDAT 2 1 0 0 1 0 0 ""
  XDAT 3 0 0 0 1 0 0 ""
  XDAT 4 0 0 0 1 0 0 ""
  XDAT 5 0 0 0 1 0 0 ""
  XDAT 6 8.2101298E-05 0 0 1 0 0 ""
  XDAT 7 -9.5739997E-06 0 0 1 0 0 ""
  XDAT 8 5.9588626E-07 0 0 1 0 0 ""
  XDAT 9 -3.0455959E-08 0 0 1 0 0 ""
  XDAT 10 -1.9480492E-09 0 0 1 0 0 ""
  XDAT 11 4.0864450E-10 0 0 1 0 0 ""
  XDAT 12 -1.4919699E-11 0 0 1 0 0 ""
  XDAT 13 -1.8257720E-13 0 0 1 0 0 ""
  XDAT 14 -2.7147724E-14 0 0 1 0 0 ""
  XDAT 15 3.4618551E-15 0 0 1 0 0 ""
  XDAT 16 -2.7227826E-18 0 0 1 0 0 ""
  XDAT 17 -6.6705344E-18 0 0 1 0 0 ""
  XDAT 18 1.4994304E-19 0 0 1 0 0 ""
  DISZ  2.26
  CONI  2.8510739
  GLAS  ___BLANK 1 0 1.58313 59.46 0 0 0 0 0 0
  DIAM  18.63 1 0 0 1 ""
  POPS 0 0 0 0 0 0 0 0 1 1 1 1 0 0 0 0
SURF 2
  TYPE XOSPHERE
  CURV 0.0696548601678682 0 0 0 0
  HIDE 0 0 0 0 0 0 0 0 0 0
  MIRR 2 0
  XDAT 1 16 0 0 1 0 0 ""
  XDAT 2 1 0 0 1 0 0 ""
  XDAT 3 0 0 0 1 0 0 ""
  XDAT 4 0 0 0 1 0 0 ""
  XDAT 5 0 0 0 1 0 0 ""
  XDAT 6 3.1069943E-04 0 0 1 0 0 ""
  XDAT 7 -1.0193003E-05 0 0 1 0 0 ""
  XDAT 8 -9.9029127E-07 0 0 1 0 0 ""
  XDAT 9 7.4165898E-09 0 0 1 0 0 ""
  XDAT 10 5.8171636E-09 0 0 1 0 0 ""
  XDAT 11 1.7037688E-10 0 0 1 0 0 ""
  XDAT 12 -1.6321215E-11 0 0 1 0 0 ""
  XDAT 13 -1.4903567E-12 0 0 1 0 0 ""
  XDAT 14 -2.8746210E-13 0 0 1 0 0 ""
  XDAT 15 5.1753338E-14 0 0 1 0 0 ""
  XDAT 16 -2.5285882E-15 0 0 1 0 0 ""
  XDAT 17 4.0808858E-17 0 0 1 0 0 ""
  XDAT 18 -8.7993111E-21 0 0 1 0 0 ""
  DISZ  11.0287
  CONI  -5.3296751
  DIAM  14.24 1 0 0 1 ""
  POPS 0 0 0 0 0 0 0 0 1 1 1 1 0 0 0 0
SURF 3
  TYPE STANDARD
  CURV -0.00998354711435554 0 0 0 0
  HIDE 0 0 0 0 0 0 0 0 0 0
  MIRR 2 0
  DISZ  1.02
  GLAS  ___BLANK 1 0 1.58313 59.46 0 0 0 0 0 0
  DIAM  13.67 1 0 0 1 ""
  POPS 0 0 0 0 0 0 0 0 1 1 1 1 0 0 0 0
SURF 4
  TYPE STANDARD
  CURV 0.0536771533932013 0 0 0 0
  HIDE 0 0 0 0 0 0 0 0 0 0
  MIRR 2 0
  DISZ  7.05
  GLAS  ___BLANK 1 0 1.89190 37.13 0 0 0 0 0 0
  DIAM  12.38 1 0 0 1 ""
  POPS 0 0 0 0 0 0 0 0 1 1 1 1 0 0 0 0
SURF 5
  TYPE STANDARD
  CURV -0.0132453839836817 0 0 0 0
  HIDE 0 0 0 0 0 0 0 0 0 0
  MIRR 2 0
  DISZ  0.97
  GLAS  ___BLANK 1 0 1.48749 70.42 0 0 0 0 0 0
  DIAM  11.95 1 0 0 1 ""
  POPS 0 0 0 0 0 0 0 0 1 1 1 1 0 0 0 0
SURF 6
  TYPE STANDARD
  CURV 0.0235259797394262 0 0 0 0
  HIDE 0 0 0 0 0 0 0 0 0 0
  MIRR 2 0
  DISZ  4.8671
  DIAM  11.95 1 0 0 1 ""
  POPS 0 0 0 0 0 0 0 0 1 1 1 1 0 0 0 0
SURF 7
  TYPE XOSPHERE
  CURV -0.0483715710602565 0 0 0 0
  HIDE 0 0 0 0 0 0 0 0 0 0
  MIRR 2 0
  XDAT 1 16 0 0 1 0 0 ""
  XDAT 2 1 0 0 1 0 0 ""
  XDAT 3 0 0 0 1 0 0 ""
  XDAT 4 0 0 0 1 0 0 ""
  XDAT 5 0 0 0 1 0 0 ""
  XDAT 6 -5.9789840E-05 0 0 1 0 0 ""
  XDAT 7 4.0272162E-07 0 0 1 0 0 ""
  XDAT 8 -1.2393722E-06 0 0 1 0 0 ""
  XDAT 9 3.9428093E-07 0 0 1 0 0 ""
  XDAT 10 -3.5102283E-08 0 0 1 0 0 ""
  XDAT 11 -2.4364513E-09 0 0 1 0 0 ""
  XDAT 12 3.7344047E-10 0 0 1 0 0 ""
  XDAT 13 3.9820245E-11 0 0 1 0 0 ""
  XDAT 14 -6.3260902E-12 0 0 1 0 0 ""
  XDAT 15 -2.0073400E-13 0 0 1 0 0 ""
  XDAT 16 7.3073525E-14 0 0 1 0 0 ""
  XDAT 17 -4.4848603E-15 0 0 1 0 0 ""
  XDAT 18 9.4036412E-17 0 0 1 0 0 ""
  DISZ  3.28
  CONI  -4.0025899
  GLAS  ___BLANK 1 0 1.58313 59.46 0 0 0 0 0 0
  DIAM  10.22 1 0 0 1 ""
  POPS 0 0 0 0 0 0 0 0 1 1 1 1 0 0 0 0
SURF 8
  TYPE STANDARD
  CURV -0.0715220609797092 0 0 0 0
  HIDE 0 0 0 0 0 0 0 0 0 0
  MIRR 2 0
  DISZ  1.66
  GLAS  ___BLANK 1 0 2.00069 25.43 0 0 0 0 0 0
  DIAM  10.22 1 0 0 1 ""
  POPS 0 0 0 0 0 0 0 0 1 1 1 1 0 0 0 0
SURF 9
  TYPE STANDARD
  CURV -0.0317485514723391 0 0 0 0
  HIDE 0 0 0 0 0 0 0 0 0 0
  MIRR 2 0
  DISZ  0.3
  DIAM  12.2 1 0 0 1 ""
  POPS 0 0 0 0 0 0 0 0 1 1 1 1 0 0 0 0
SURF 10
  TYPE STANDARD
  CURV 0.0112312606416195 0 0 0 0
  HIDE 0 0 0 0 0 0 0 0 0 0
  MIRR 2 0
  DISZ  4.11
  GLAS  ___BLANK 1 0 1.95375 32.32 0 0 0 0 0 0
  DIAM  12.67 1 0 0 1 ""
  POPS 0 0 0 0 0 0 0 0 1 1 1 1 0 0 0 0
SURF 11
  TYPE STANDARD
  CURV -0.0259895522000156 0 0 0 0
  HIDE 0 0 0 0 0 0 0 0 0 0
  MIRR 2 0
  DISZ  3.139
  DIAM  12.67 1 0 0 1 ""
  POPS 0 0 0 0 0 0 0 0 1 1 1 1 0 0 0 0
SURF 12
  STOP
  TYPE STANDARD
  CURV 0 0 0 0 0
  HIDE 0 0 0 0 0 0 0 0 0 0
  MIRR 2 0
  DISZ  6.58
  DIAM  11.469 1 0 0 1 ""
  POPS 0 0 0 0 0 0 0 0 1 1 1 1 0 0 0 0
SURF 13
  TYPE STANDARD
  CURV 0.0348883050912504 0 0 0 0
  HIDE 0 0 0 0 0 0 0 0 0 0
  MIRR 2 0
  DISZ  8.18
  GLAS  ___BLANK 1 0 1.59282 68.62 0 0 0 0 0 0
  DIAM  12.02 1 0 0 1 ""
  POPS 0 0 0 0 0 0 0 0 1 1 1 1 0 0 0 0
SURF 14
  TYPE STANDARD
  CURV -0.0505053055823514 0 0 0 0
  HIDE 0 0 0 0 0 0 0 0 0 0
  MIRR 2 0
  DISZ  0.91
  GLAS  ___BLANK 1 0 1.85451 25.15 0 0 0 0 0 0
  DIAM  12.02 1 0 0 1 ""
  POPS 0 0 0 0 0 0 0 0 1 1 1 1 0 0 0 0
SURF 15
  TYPE STANDARD
  CURV 0 0 0 0 0
  HIDE 0 0 0 0 0 0 0 0 0 0
  MIRR 2 0
  DISZ  0.4007
  DIAM  12.02 1 0 0 1 ""
  POPS 0 0 0 0 0 0 0 0 1 1 1 1 0 0 0 0
SURF 16
  TYPE STANDARD
  CURV 0 0 0 0 0
  HIDE 0 0 0 0 0 0 0 0 0 0
  MIRR 2 0
  DISZ  5.85
  GLAS  ___BLANK 1 0 1.77250 49.61 0 0 0 0 0 0
  DIAM  11.07 1 0 0 1 ""
  POPS 0 0 0 0 0 0 0 0 1 1 1 1 0 0 0 0
SURF 17
  TYPE STANDARD
  CURV -0.0647081661705707 0 0 0 0
  HIDE 0 0 0 0 0 0 0 0 0 0
  MIRR 2 0
  DISZ  1.09
  GLAS  ___BLANK 1 0 1.85451 25.15 0 0 0 0 0 0
  DIAM  11.07 1 0 0 1 ""
  POPS 0 0 0 0 0 0 0 0 1 1 1 1 0 0 0 0
SURF 18
  TYPE STANDARD
  CURV -0.00476225399386431 0 0 0 0
  HIDE 0 0 0 0 0 0 0 0 0 0
  MIRR 2 0
  DISZ  0.1389
  DIAM  11.48 1 0 0 1 ""
  POPS 0 0 0 0 0 0 0 0 1 1 1 1 0 0 0 0
SURF 19
  TYPE STANDARD
  CURV 0.0220460497887988 0 0 0 0
  HIDE 0 0 0 0 0 0 0 0 0 0
  MIRR 2 0
  DISZ  4.16
  GLAS  ___BLANK 1 0 2.00272 19.32 0 0 0 0 0 0
  DIAM  11.7 1 0 0 1 ""
  POPS 0 0 0 0 0 0 0 0 1 1 1 1 0 0 0 0
SURF 20
  TYPE STANDARD
  CURV -0.0220460497887988 0 0 0 0
  HIDE 0 0 0 0 0 0 0 0 0 0
  MIRR 2 0
  DISZ  0.4
  DIAM  11.7 1 0 0 1 ""
  POPS 0 0 0 0 0 0 0 0 1 1 1 1 0 0 0 0
SURF 21
  TYPE XOSPHERE
  CURV 0.0618387122706557 0 0 0 0
  HIDE 0 0 0 0 0 0 0 0 0 0
  MIRR 2 0
  XDAT 1 16 0 0 1 0 0 ""
  XDAT 2 1 0 0 1 0 0 ""
  XDAT 3 0 0 0 1 0 0 ""
  XDAT 4 0 0 0 1 0 0 ""
  XDAT 5 0 0 0 1 0 0 ""
  XDAT 6 -1.5689881E-05 0 0 1 0 0 ""
  XDAT 7 -6.5802732E-06 0 0 1 0 0 ""
  XDAT 8 -6.9255100E-07 0 0 1 0 0 ""
  XDAT 9 1.4479909E-08 0 0 1 0 0 ""
  XDAT 10 1.4122715E-08 0 0 1 0 0 ""
  XDAT 11 -3.4964926E-10 0 0 1 0 0 ""
  XDAT 12 -7.5590845E-11 0 0 1 0 0 ""
  XDAT 13 6.1173246E-12 0 0 1 0 0 ""
  XDAT 14 -9.6603698E-13 0 0 1 0 0 ""
  XDAT 15 7.7251258E-14 0 0 1 0 0 ""
  XDAT 16 1.1107596E-15 0 0 1 0 0 ""
  XDAT 17 -3.0214962E-16 0 0 1 0 0 ""
  XDAT 18 7.8465436E-18 0 0 1 0 0 ""
  DISZ  1.3856
  CONI  -6.0000027
  GLAS  ___BLANK 1 0 1.80610 40.73 0 0 0 0 0 0
  DIAM  11.87 1 0 0 1 ""
  POPS 0 0 0 0 0 0 0 0 1 1 1 1 0 0 0 0
SURF 22
  TYPE XOSPHERE
  CURV 0.0907663402103964 0 0 0 0
  HIDE 0 0 0 0 0 0 0 0 0 0
  MIRR 2 0
  XDAT 1 16 0 0 1 0 0 ""
  XDAT 2 1 0 0 1 0 0 ""
  XDAT 3 0 0 0 1 0 0 ""
  XDAT 4 0 0 0 1 0 0 ""
  XDAT 5 0 0 0 1 0 0 ""
  XDAT 6 3.0065970E-05 0 0 1 0 0 ""
  XDAT 7 -1.9431301E-05 0 0 1 0 0 ""
  XDAT 8 3.3138973E-06 0 0 1 0 0 ""
  XDAT 9 -4.3716353E-07 0 0 1 0 0 ""
  XDAT 10 2.8105186E-08 0 0 1 0 0 ""
  XDAT 11 1.7441042E-09 0 0 1 0 0 ""
  XDAT 12 -1.5417488E-10 0 0 1 0 0 ""
  XDAT 13 -2.3068826E-11 0 0 1 0 0 ""
  XDAT 14 1.2815061E-12 0 0 1 0 0 ""
  XDAT 15 2.3110962E-13 0 0 1 0 0 ""
  XDAT 16 -2.7371328E-14 0 0 1 0 0 ""
  XDAT 17 1.2010839E-15 0 0 1 0 0 ""
  XDAT 18 -2.1499728E-17 0 0 1 0 0 ""
  DISZ  6.72
  CONI  -2.4211109
  DIAM  10.28 1 0 0 1 ""
  POPS 0 0 0 0 0 0 0 0 1 1 1 1 0 0 0 0
SURF 23
  TYPE STANDARD
  CURV 0.00275296818146906 0 0 0 0
  HIDE 0 0 0 0 0 0 0 0 0 0
  MIRR 2 0
  DISZ  2.28
  GLAS  ___BLANK 1 0 1.60300 65.46 0 0 0 0 0 0
  DIAM  11.85 1 0 0 1 ""
  POPS 0 0 0 0 0 0 0 0 1 1 1 1 0 0 0 0
SURF 24
  TYPE STANDARD
  CURV -0.0161013224016088 0 0 0 0
  HIDE 0 0 0 0 0 0 0 0 0 0
  MIRR 2 0
  DISZ  0.92
  GLAS  ___BLANK 1 0 1.84667 23.79 0 0 0 0 0 0
  DIAM  11.85 1 0 0 1 ""
  POPS 0 0 0 0 0 0 0 0 1 1 1 1 0 0 0 0
SURF 25
  TYPE STANDARD
  CURV 0 0 0 0 0
  HIDE 0 0 0 0 0 0 0 0 0 0
  MIRR 2 0
  DISZ  8.4141
  DIAM  12.75 1 0 0 1 ""
  POPS 0 0 0 0 0 0 0 0 1 1 1 1 0 0 0 0
SURF 26
  TYPE STANDARD
  CURV 0 0 0 0 0
  HIDE 0 0 0 0 0 0 0 0 0 0
  MIRR 2 0
  DISZ  2.85
  GLAS  ___BLANK 1 0 1.51680 64.20 0 0 0 0 0 0
  DIAM  14.38 1 0 0 1 ""
  POPS 0 0 0 0 0 0 0 0 1 1 1 1 0 0 0 0
SURF 27
  TYPE STANDARD
  CURV 0 0 0 0 0
  HIDE 0 0 0 0 0 0 0 0 0 0
  MIRR 2 0
  DISZ  1.1
  DIAM  14.38 1 0 0 1 ""
  POPS 0 0 0 0 0 0 0 0 1 1 1 1 0 0 0 0
SURF 28
  TYPE STANDARD
  CURV 0.0 0 0 0 0 ""
  HIDE 0 0 0 0 0 0 0 0 0 0
  MIRR 2 0
  DISZ 0
  DIAM 14.2 1 0 0 1 ""
  POPS 0 0 0 0 0 0 0 0 1 1 1 1 0 0 0 0
TOL TOFF   0   0              0              0   0 0 0 0
MNUM 2 1
THIC   0   1 1.00E+10 0 0 0 1 1 1 0 0
THIC   0   2 109.90 0 0 0 1 1 1 0 0
THIC   12   1 6.58 0 0 0 1 1 1 0 0
THIC   12   2 4.08 0 0 0 1 1 1 0 0
THIC   22   1 6.72 0 0 0 1 1 1 0 0
THIC   22   2 9.22 0 0 0 1 1 1 0 0
