VERS 161019 507 33785
MODE SEQ
NAME US 2015/0131163 Example 1 (Fujifilm Fujinon XF10-24mm F4 R OIS)
NOTE 0 Prepared and converted by Bill Claff.
PFIL 0 0 0
LANG 0
UNIT MM X W X CM MR CPMM
FLOA
ENVD 20 1 0
GFAC 0 0
RAIM 0 2 1 1 0 1 0 0 0
SDMA 0 1 0
FTYP 3 0 3 3 0 0 0
ROPD 2
HYPR 0
PICB 1
XFLN 0 0 0 0 0 0 0 0 0 0 0 0
YFLN 0 9.94 14.2 0 0 0 0 0 0 0 0 0 0
FWGN 1 1 1 1 1 1 1 1 1 1 1 1
VDXN 0 0 0 0 0 0 0 0 0 0 0 0
VDYN 0 0 0 0 0 0 0 0 0 0 0 0
VCXN 0 0 0 0 0 0 0 0 0 0 0 0
VCYN 0 0 0 0 0 0 0 0 0 0 0 0
VANN 0 0 0 0 0 0 0 0 0 0 0 0
WAVM 1 0.4861327 1
WAVM 2 0.5875618 1
WAVM 3 0.6562725 1
WAVM 4 0.550 1
WAVM 5 0.550 1
WAVM 6 0.550 1
WAVM 7 0.550 1
WAVM 8 0.550 1
WAVM 9 0.550 1
WAVM 10 0.550 1
WAVM 11 0.550 1
WAVM 12 0.550 1
WAVM 13 0.550 1
WAVM 14 0.550 1
WAVM 15 0.550 1
WAVM 16 0.550 1
WAVM 17 0.550 1
WAVM 18 0.550 1
WAVM 19 0.550 1
WAVM 20 0.550 1
WAVM 21 0.550 1
WAVM 22 0.550 1
WAVM 23 0.550 1
WAVM 24 0.550 1
PWAV 2
POLS 1 0 1 0 0 1 0
GSTD 0 100 100 100 100 100 100 0 1 1 0 0 1 1 1 1 1 1
NSCD 100 500 0 1.0E-3 5 1.0E-6 0 0 0 0 0 0 1000000 0 2
SURF 0
  TYPE STANDARD
  CURV 0.0 0 0 0 0 ""
  HIDE 0 0 0 0 0 0 0 0 0 0
  MIRR 2 0
  DISZ INFINITY
  DIAM 0 1 0 0 1 ""
  POPS 0 0 0 0 0 0 0 0 1 1 1 1 0 0 0 0
SURF 1
  TYPE STANDARD
  CURV 0.0204467199371877 0 0 0 0
  HIDE 0 0 0 0 0 0 0 0 0 0
  MIRR 2 0
  DISZ  1.7
  GLAS  ___BLANK 1 0 1.754999 52.32 0 0 0 0 0 0
  DIAM  20.54 1 0 0 1 ""
  POPS 0 0 0 0 0 0 0 0 1 1 1 1 0 0 0 0
SURF 2
  TYPE STANDARD
  CURV 0.0583996168985131 0 0 0 0
  HIDE 0 0 0 0 0 0 0 0 0 0
  MIRR 2 0
  DISZ  4
  DIAM  14.24 1 0 0 1 ""
  POPS 0 0 0 0 0 0 0 0 1 1 1 1 0 0 0 0
SURF 3
  TYPE XOSPHERE
  CURV 0.0280282412558894 0 0 0 0
  HIDE 0 0 0 0 0 0 0 0 0 0
  MIRR 2 0
  XDAT 1 12 0 0 1 0 0 ""
  XDAT 2 1 0 0 1 0 0 ""
  XDAT 3 0 0 0 1 0 0 ""
  XDAT 4 0 0 0 1 0 0 ""
  XDAT 5 0.0000000E+00 0 0 1 0 0 ""
  XDAT 6 2.5843180E-04 0 0 1 0 0 ""
  XDAT 7 -7.8805637E-06 0 0 1 0 0 ""
  XDAT 8 -3.5980953E-06 0 0 1 0 0 ""
  XDAT 9 1.6095961E-07 0 0 1 0 0 ""
  XDAT 10 2.2978051E-08 0 0 1 0 0 ""
  XDAT 11 -1.5416422E-09 0 0 1 0 0 ""
  XDAT 12 -4.0438312E-11 0 0 1 0 0 ""
  XDAT 13 5.0566122E-12 0 0 1 0 0 ""
  XDAT 14 -9.9545849E-14 0 0 1 0 0 ""
  DISZ  1.5
  CONI  0
  GLAS  ___BLANK 1 0 1.740250 49.12 0 0 0 0 0 0
  DIAM  14.88 1 0 0 1 ""
  POPS 0 0 0 0 0 0 0 0 1 1 1 1 0 0 0 0
SURF 4
  TYPE XOSPHERE
  CURV 0.0835624336723183 0 0 0 0
  HIDE 0 0 0 0 0 0 0 0 0 0
  MIRR 2 0
  XDAT 1 12 0 0 1 0 0 ""
  XDAT 2 1 0 0 1 0 0 ""
  XDAT 3 0 0 0 1 0 0 ""
  XDAT 4 0 0 0 1 0 0 ""
  XDAT 5 -4.4558881E-06 0 0 1 0 0 ""
  XDAT 6 5.5484444E-04 0 0 1 0 0 ""
  XDAT 7 -1.2840395E-05 0 0 1 0 0 ""
  XDAT 8 -4.0404631E-06 0 0 1 0 0 ""
  XDAT 9 -2.0257653E-07 0 0 1 0 0 ""
  XDAT 10 4.3385992E-08 0 0 1 0 0 ""
  XDAT 11 2.0356520E-09 0 0 1 0 0 ""
  XDAT 12 -2.8487869E-10 0 0 1 0 0 ""
  XDAT 13 -3.3536803E-12 0 0 1 0 0 ""
  XDAT 14 5.6528700E-13 0 0 1 0 0 ""
  DISZ  8.68
  CONI  -4.298432
  DIAM  11.86 1 0 0 1 ""
  POPS 0 0 0 0 0 0 0 0 1 1 1 1 0 0 0 0
SURF 5
  TYPE STANDARD
  CURV -0.0251371230059977 0 0 0 0
  HIDE 0 0 0 0 0 0 0 0 0 0
  MIRR 2 0
  DISZ  1.3
  GLAS  ___BLANK 1 0 1.592824 68.63 0 0 0 0 0 0
  DIAM  11.86 1 0 0 1 ""
  POPS 0 0 0 0 0 0 0 0 1 1 1 1 0 0 0 0
SURF 6
  TYPE STANDARD
  CURV 0.02230718782206 0 0 0 0
  HIDE 0 0 0 0 0 0 0 0 0 0
  MIRR 2 0
  DISZ  0.1
  DIAM  12.64 1 0 0 1 ""
  POPS 0 0 0 0 0 0 0 0 1 1 1 1 0 0 0 0
SURF 7
  TYPE STANDARD
  CURV 0.0309823896097458 0 0 0 0
  HIDE 0 0 0 0 0 0 0 0 0 0
  MIRR 2 0
  DISZ  4.67
  GLAS  ___BLANK 1 0 1.882997 40.76 0 0 0 0 0 0
  DIAM  12.64 1 0 0 1 ""
  POPS 0 0 0 0 0 0 0 0 1 1 1 1 0 0 0 0
SURF 8
  TYPE STANDARD
  CURV -0.0147632636851764 0 0 0 0
  HIDE 0 0 0 0 0 0 0 0 0 0
  MIRR 2 0
  DISZ  25.91
  DIAM  12.64 1 0 0 1 ""
  POPS 0 0 0 0 0 0 0 0 1 1 1 1 0 0 0 0
SURF 9
  STOP
  TYPE STANDARD
  CURV 0 0 0 0 0
  HIDE 0 0 0 0 0 0 0 0 0 0
  MIRR 2 0
  DISZ  1.3
  DIAM  4.0695 1 0 0 1 ""
  POPS 0 0 0 0 0 0 0 0 1 1 1 1 0 0 0 0
SURF 10
  TYPE XOSPHERE
  CURV 0.0447942376692662 0 0 0 0
  HIDE 0 0 0 0 0 0 0 0 0 0
  MIRR 2 0
  XDAT 1 12 0 0 1 0 0 ""
  XDAT 2 1 0 0 1 0 0 ""
  XDAT 3 0 0 0 1 0 0 ""
  XDAT 4 0 0 0 1 0 0 ""
  XDAT 5 0.0000000E+00 0 0 1 0 0 ""
  XDAT 6 1.9450862E-06 0 0 1 0 0 ""
  XDAT 7 -2.6510883E-05 0 0 1 0 0 ""
  XDAT 8 9.2762597E-06 0 0 1 0 0 ""
  XDAT 9 -1.0108176E-06 0 0 1 0 0 ""
  XDAT 10 -1.3268194E-07 0 0 1 0 0 ""
  XDAT 11 3.3304332E-08 0 0 1 0 0 ""
  XDAT 12 -6.2858817E-10 0 0 1 0 0 ""
  XDAT 13 -2.6696016E-10 0 0 1 0 0 ""
  XDAT 14 1.4450909E-11 0 0 1 0 0 ""
  DISZ  3
  CONI  0
  GLAS  ___BLANK 1 0 1.581029 59.23 0 0 0 0 0 0
  DIAM  8.19 1 0 0 1 ""
  POPS 0 0 0 0 0 0 0 0 1 1 1 1 0 0 0 0
SURF 11
  TYPE XOSPHERE
  CURV -0.000275961963389892 0 0 0 0
  HIDE 0 0 0 0 0 0 0 0 0 0
  MIRR 2 0
  XDAT 1 12 0 0 1 0 0 ""
  XDAT 2 1 0 0 1 0 0 ""
  XDAT 3 0 0 0 1 0 0 ""
  XDAT 4 0 0 0 1 0 0 ""
  XDAT 5 0.0000000E+00 0 0 1 0 0 ""
  XDAT 6 4.3055171E-05 0 0 1 0 0 ""
  XDAT 7 -4.7563942E-05 0 0 1 0 0 ""
  XDAT 8 1.5741695E-05 0 0 1 0 0 ""
  XDAT 9 -1.3970041E-06 0 0 1 0 0 ""
  XDAT 10 -3.3239681E-07 0 0 1 0 0 ""
  XDAT 11 6.9972366E-08 0 0 1 0 0 ""
  XDAT 12 -5.4620266E-10 0 0 1 0 0 ""
  XDAT 13 -7.1336476E-10 0 0 1 0 0 ""
  XDAT 14 4.1858983E-11 0 0 1 0 0 ""
  DISZ  1.3
  CONI  0
  DIAM  8.19 1 0 0 1 ""
  POPS 0 0 0 0 0 0 0 0 1 1 1 1 0 0 0 0
SURF 12
  TYPE STANDARD
  CURV 0.0017310687722464 0 0 0 0
  HIDE 0 0 0 0 0 0 0 0 0 0
  MIRR 2 0
  DISZ  0.71
  GLAS  ___BLANK 1 0 1.816000 46.62 0 0 0 0 0 0
  DIAM  7.63 1 0 0 1 ""
  POPS 0 0 0 0 0 0 0 0 1 1 1 1 0 0 0 0
SURF 13
  TYPE STANDARD
  CURV 0.0601720921836452 0 0 0 0
  HIDE 0 0 0 0 0 0 0 0 0 0
  MIRR 2 0
  DISZ  3.8
  GLAS  ___BLANK 1 0 1.733997 51.47 0 0 0 0 0 0
  DIAM  7.63 1 0 0 1 ""
  POPS 0 0 0 0 0 0 0 0 1 1 1 1 0 0 0 0
SURF 14
  TYPE STANDARD
  CURV -0.0238729006767967 0 0 0 0
  HIDE 0 0 0 0 0 0 0 0 0 0
  MIRR 2 0
  DISZ  3.75
  DIAM  7.95 1 0 0 1 ""
  POPS 0 0 0 0 0 0 0 0 1 1 1 1 0 0 0 0
SURF 15
  TYPE STANDARD
  CURV -0.0357896997244193 0 0 0 0
  HIDE 0 0 0 0 0 0 0 0 0 0
  MIRR 2 0
  DISZ  0.71
  GLAS  ___BLANK 1 0 1.772499 49.60 0 0 0 0 0 0
  DIAM  7.315 1 0 0 1 ""
  POPS 0 0 0 0 0 0 0 0 1 1 1 1 0 0 0 0
SURF 16
  TYPE STANDARD
  CURV 0.0381941792070888 0 0 0 0
  HIDE 0 0 0 0 0 0 0 0 0 0
  MIRR 2 0
  DISZ  3.06
  GLAS  ___BLANK 1 0 1.496999 81.54 0 0 0 0 0 0
  DIAM  8.16 1 0 0 1 ""
  POPS 0 0 0 0 0 0 0 0 1 1 1 1 0 0 0 0
SURF 17
  TYPE STANDARD
  CURV -0.0250978817387812 0 0 0 0
  HIDE 0 0 0 0 0 0 0 0 0 0
  MIRR 2 0
  DISZ  1.97
  DIAM  8.16 1 0 0 1 ""
  POPS 0 0 0 0 0 0 0 0 1 1 1 1 0 0 0 0
SURF 18
  TYPE XOSPHERE
  CURV 0.0542602429773681 0 0 0 0
  HIDE 0 0 0 0 0 0 0 0 0 0
  MIRR 2 0
  XDAT 1 12 0 0 1 0 0 ""
  XDAT 2 1 0 0 1 0 0 ""
  XDAT 3 0 0 0 1 0 0 ""
  XDAT 4 0 0 0 1 0 0 ""
  XDAT 5 0.0000000E+00 0 0 1 0 0 ""
  XDAT 6 1.3578295E-05 0 0 1 0 0 ""
  XDAT 7 -9.1406993E-06 0 0 1 0 0 ""
  XDAT 8 5.1811411E-07 0 0 1 0 0 ""
  XDAT 9 3.2116393E-07 0 0 1 0 0 ""
  XDAT 10 -3.7667873E-08 0 0 1 0 0 ""
  XDAT 11 -3.1136060E-09 0 0 1 0 0 ""
  XDAT 12 5.4785448E-10 0 0 1 0 0 ""
  XDAT 13 8.4337876E-12 0 0 1 0 0 ""
  XDAT 14 -2.3865100E-12 0 0 1 0 0 ""
  DISZ  5
  CONI  0
  GLAS  ___BLANK 1 0 1.497103 81.56 0 0 0 0 0 0
  DIAM  8.8 1 0 0 1 ""
  POPS 0 0 0 0 0 0 0 0 1 1 1 1 0 0 0 0
SURF 19
  TYPE XOSPHERE
  CURV -0.0569382049661502 0 0 0 0
  HIDE 0 0 0 0 0 0 0 0 0 0
  MIRR 2 0
  XDAT 1 12 0 0 1 0 0 ""
  XDAT 2 1 0 0 1 0 0 ""
  XDAT 3 0 0 0 1 0 0 ""
  XDAT 4 0 0 0 1 0 0 ""
  XDAT 5 0.0000000E+00 0 0 1 0 0 ""
  XDAT 6 8.3287140E-05 0 0 1 0 0 ""
  XDAT 7 9.4589632E-06 0 0 1 0 0 ""
  XDAT 8 -3.5236718E-06 0 0 1 0 0 ""
  XDAT 9 5.8093125E-07 0 0 1 0 0 ""
  XDAT 10 -1.2202069E-09 0 0 1 0 0 ""
  XDAT 11 -9.8162042E-09 0 0 1 0 0 ""
  XDAT 12 6.9266610E-10 0 0 1 0 0 ""
  XDAT 13 4.3240880E-11 0 0 1 0 0 ""
  XDAT 14 -4.4223065E-12 0 0 1 0 0 ""
  DISZ  1.3
  CONI  0
  DIAM  8.8 1 0 0 1 ""
  POPS 0 0 0 0 0 0 0 0 1 1 1 1 0 0 0 0
SURF 20
  TYPE STANDARD
  CURV 0.00452964813240343 0 0 0 0
  HIDE 0 0 0 0 0 0 0 0 0 0
  MIRR 2 0
  DISZ  0.91
  GLAS  ___BLANK 1 0 1.804000 46.58 0 0 0 0 0 0
  DIAM  8.835 1 0 0 1 ""
  POPS 0 0 0 0 0 0 0 0 1 1 1 1 0 0 0 0
SURF 21
  TYPE STANDARD
  CURV 0.0938790837401427 0 0 0 0
  HIDE 0 0 0 0 0 0 0 0 0 0
  MIRR 2 0
  DISZ  6.3
  GLAS  ___BLANK 1 0 1.496999 81.54 0 0 0 0 0 0
  DIAM  8.275 1 0 0 1 ""
  POPS 0 0 0 0 0 0 0 0 1 1 1 1 0 0 0 0
SURF 22
  TYPE STANDARD
  CURV -0.011968880909635 0 0 0 0
  HIDE 0 0 0 0 0 0 0 0 0 0
  MIRR 2 0
  DISZ  1
  GLAS  ___BLANK 1 0 1.696797 55.53 0 0 0 0 0 0
  DIAM  9.05 1 0 0 1 ""
  POPS 0 0 0 0 0 0 0 0 1 1 1 1 0 0 0 0
SURF 23
  TYPE STANDARD
  CURV 0.0200104854943991 0 0 0 0
  HIDE 0 0 0 0 0 0 0 0 0 0
  MIRR 2 0
  DISZ  2
  DIAM  9.05 1 0 0 1 ""
  POPS 0 0 0 0 0 0 0 0 1 1 1 1 0 0 0 0
SURF 24
  TYPE XOSPHERE
  CURV 0.0023996398620495 0 0 0 0
  HIDE 0 0 0 0 0 0 0 0 0 0
  MIRR 2 0
  XDAT 1 12 0 0 1 0 0 ""
  XDAT 2 1 0 0 1 0 0 ""
  XDAT 3 0 0 0 1 0 0 ""
  XDAT 4 0 0 0 1 0 0 ""
  XDAT 5 0.0000000E+00 0 0 1 0 0 ""
  XDAT 6 -1.4524716E-04 0 0 1 0 0 ""
  XDAT 7 4.0453268E-05 0 0 1 0 0 ""
  XDAT 8 -3.4384459E-06 0 0 1 0 0 ""
  XDAT 9 -1.8524677E-08 0 0 1 0 0 ""
  XDAT 10 1.8204920E-08 0 0 1 0 0 ""
  XDAT 11 -3.5828397E-10 0 0 1 0 0 ""
  XDAT 12 -4.3555141E-11 0 0 1 0 0 ""
  XDAT 13 4.8895266E-13 0 0 1 0 0 ""
  XDAT 14 5.6568011E-14 0 0 1 0 0 ""
  DISZ  4
  CONI  0
  GLAS  ___BLANK 1 0 1.693500 53.18 0 0 0 0 0 0
  DIAM  14.485 1 0 0 1 ""
  POPS 0 0 0 0 0 0 0 0 1 1 1 1 0 0 0 0
SURF 25
  TYPE XOSPHERE
  CURV -0.0206876149455605 0 0 0 0
  HIDE 0 0 0 0 0 0 0 0 0 0
  MIRR 2 0
  XDAT 1 12 0 0 1 0 0 ""
  XDAT 2 1 0 0 1 0 0 ""
  XDAT 3 0 0 0 1 0 0 ""
  XDAT 4 0 0 0 1 0 0 ""
  XDAT 5 0.0000000E+00 0 0 1 0 0 ""
  XDAT 6 -1.0149458E-04 0 0 1 0 0 ""
  XDAT 7 1.7019957E-05 0 0 1 0 0 ""
  XDAT 8 1.5504919E-06 0 0 1 0 0 ""
  XDAT 9 -4.6722636E-07 0 0 1 0 0 ""
  XDAT 10 2.4336798E-08 0 0 1 0 0 ""
  XDAT 11 1.3179759E-09 0 0 1 0 0 ""
  XDAT 12 -1.3035736E-10 0 0 1 0 0 ""
  XDAT 13 -1.3218710E-13 0 0 1 0 0 ""
  XDAT 14 1.4069497E-13 0 0 1 0 0 ""
  DISZ  5
  CONI  0
  DIAM  14.485 1 0 0 1 ""
  POPS 0 0 0 0 0 0 0 0 1 1 1 1 0 0 0 0
SURF 26
  TYPE STANDARD
  CURV 0 0 0 0 0
  HIDE 0 0 0 0 0 0 0 0 0 0
  MIRR 2 0
  DISZ  2.85
  GLAS  ___BLANK 1 0 1.516798 64.20 0 0 0 0 0 0
  DIAM  14.14 1 0 0 1 ""
  POPS 0 0 0 0 0 0 0 0 1 1 1 1 0 0 0 0
SURF 27
  TYPE STANDARD
  CURV 0 0 0 0 0
  HIDE 0 0 0 0 0 0 0 0 0 0
  MIRR 2 0
  DISZ  7.6391
  DIAM  14.14 1 0 0 1 ""
  POPS 0 0 0 0 0 0 0 0 1 1 1 1 0 0 0 0
SURF 28
  TYPE STANDARD
  CURV 0.0 0 0 0 0 ""
  HIDE 0 0 0 0 0 0 0 0 0 0
  MIRR 2 0
  DISZ 0
  DIAM 14.2 1 0 0 1 ""
  POPS 0 0 0 0 0 0 0 0 1 1 1 1 0 0 0 0
TOL TOFF   0   0              0              0   0 0 0 0
MNUM 3 1
SDIA   9   1 4.0695 0 0 0 1 1 1 0 0
SDIA   9   2 4.8065 0 0 0 1 1 1 0 0
SDIA   9   3 6.099 0 0 0 1 1 1 0 0
THIC   8   1 25.91 0 0 0 1 1 1 0 0
THIC   8   2 12.14 0 0 0 1 1 1 0 0
THIC   8   3 1.97 0 0 0 1 1 1 0 0
THIC   14   1 3.75 0 0 0 1 1 1 0 0
THIC   14   2 4.44 0 0 0 1 1 1 0 0
THIC   14   3 5.50 0 0 0 1 1 1 0 0
THIC   17   1 1.97 0 0 0 1 1 1 0 0
THIC   17   2 2.14 0 0 0 1 1 1 0 0
THIC   17   3 1.90 0 0 0 1 1 1 0 0
THIC   23   1 2.00 0 0 0 1 1 1 0 0
THIC   23   2 9.28 0 0 0 1 1 1 0 0
THIC   23   3 21.46 0 0 0 1 1 1 0 0
