VERS 161019 507 33785
MODE SEQ
NAME US 2015/0168694 Example 1 (Fujifilm Fujinon XF14mm F2.8 R)
NOTE 0 Prepared and converted by Bill Claff.
PFIL 0 0 0
LANG 0
UNIT MM X W X CM MR CPMM
FNUM 2.88 0
ENVD 20 1 0
GFAC 0 0
RAIM 0 2 1 1 0 1 0 0 0
SDMA 0 1 0
FTYP 3 0 3 3 0 0 0
ROPD 2
HYPR 0
PICB 1
XFLN 0 0 0 0 0 0 0 0 0 0 0 0
YFLN 0 9.94 14.2 0 0 0 0 0 0 0 0 0 0
FWGN 1 1 1 1 1 1 1 1 1 1 1 1
VDXN 0 0 0 0 0 0 0 0 0 0 0 0
VDYN 0 0 0 0 0 0 0 0 0 0 0 0
VCXN 0 0 0 0 0 0 0 0 0 0 0 0
VCYN 0 0 0 0 0 0 0 0 0 0 0 0
VANN 0 0 0 0 0 0 0 0 0 0 0 0
WAVM 1 0.4861327 1
WAVM 2 0.5875618 1
WAVM 3 0.6562725 1
WAVM 4 0.550 1
WAVM 5 0.550 1
WAVM 6 0.550 1
WAVM 7 0.550 1
WAVM 8 0.550 1
WAVM 9 0.550 1
WAVM 10 0.550 1
WAVM 11 0.550 1
WAVM 12 0.550 1
WAVM 13 0.550 1
WAVM 14 0.550 1
WAVM 15 0.550 1
WAVM 16 0.550 1
WAVM 17 0.550 1
WAVM 18 0.550 1
WAVM 19 0.550 1
WAVM 20 0.550 1
WAVM 21 0.550 1
WAVM 22 0.550 1
WAVM 23 0.550 1
WAVM 24 0.550 1
PWAV 2
POLS 1 0 1 0 0 1 0
GSTD 0 100 100 100 100 100 100 0 1 1 0 0 1 1 1 1 1 1
NSCD 100 500 0 1.0E-3 5 1.0E-6 0 0 0 0 0 0 1000000 0 2
SURF 0
  TYPE STANDARD
  CURV 0.0 0 0 0 0 ""
  HIDE 0 0 0 0 0 0 0 0 0 0
  MIRR 2 0
  DISZ INFINITY
  DIAM 0 1 0 0 1 ""
  POPS 0 0 0 0 0 0 0 0 1 1 1 1 0 0 0 0
SURF 1
  TYPE STANDARD
  CURV 0.0219925225423356 0 0 0 0
  HIDE 0 0 0 0 0 0 0 0 0 0
  MIRR 2 0
  DISZ  1.28
  GLAS  ___BLANK 1 0 1.57135 53.0 0 0 0 0 0 0
  DIAM  13.47 1 0 0 1 ""
  POPS 0 0 0 0 0 0 0 0 1 1 1 1 0 0 0 0
SURF 2
  TYPE STANDARD
  CURV 0.0748166990872363 0 0 0 0
  HIDE 0 0 0 0 0 0 0 0 0 0
  MIRR 2 0
  DISZ  5.87
  DIAM  10.2 1 0 0 1 ""
  POPS 0 0 0 0 0 0 0 0 1 1 1 1 0 0 0 0
SURF 3
  TYPE XOSPHERE
  CURV 0.029312619082515 0 0 0 0
  HIDE 0 0 0 0 0 0 0 0 0 0
  MIRR 2 0
  XDAT 1 20 0 0 1 0 0 ""
  XDAT 2 1 0 0 1 0 0 ""
  XDAT 3 0 0 0 1 0 0 ""
  XDAT 4 0 0 0 1 0 0 ""
  XDAT 5 1.0465349E-03 0 0 1 0 0 ""
  XDAT 6 -1.4397107E-03 0 0 1 0 0 ""
  XDAT 7 1.0398983E-03 0 0 1 0 0 ""
  XDAT 8 -3.1920537E-04 0 0 1 0 0 ""
  XDAT 9 9.8764948E-06 0 0 1 0 0 ""
  XDAT 10 2.0049033E-05 0 0 1 0 0 ""
  XDAT 11 -4.5234440E-06 0 0 1 0 0 ""
  XDAT 12 -1.2044515E-07 0 0 1 0 0 ""
  XDAT 13 1.6644987E-07 0 0 1 0 0 ""
  XDAT 14 -1.5441504E-08 0 0 1 0 0 ""
  XDAT 15 -2.0089199E-09 0 0 1 0 0 ""
  XDAT 16 4.2314856E-10 0 0 1 0 0 ""
  XDAT 17 -4.4798993E-12 0 0 1 0 0 ""
  XDAT 18 -4.0229593E-12 0 0 1 0 0 ""
  XDAT 19 2.6771169E-13 0 0 1 0 0 ""
  XDAT 20 8.8641130E-15 0 0 1 0 0 ""
  XDAT 21 -1.4680780E-15 0 0 1 0 0 ""
  XDAT 22 4.1786408E-17 0 0 1 0 0 ""
  DISZ  2.5
  CONI  -1
  GLAS  ___BLANK 1 0 1.58312 59.4 0 0 0 0 0 0
  DIAM  9.16 1 0 0 1 ""
  POPS 0 0 0 0 0 0 0 0 1 1 1 1 0 0 0 0
SURF 4
  TYPE XOSPHERE
  CURV 0.115580212667591 0 0 0 0
  HIDE 0 0 0 0 0 0 0 0 0 0
  MIRR 2 0
  XDAT 1 20 0 0 1 0 0 ""
  XDAT 2 1 0 0 1 0 0 ""
  XDAT 3 0 0 0 1 0 0 ""
  XDAT 4 0 0 0 1 0 0 ""
  XDAT 5 -2.0064589E-04 0 0 1 0 0 ""
  XDAT 6 8.7627361E-04 0 0 1 0 0 ""
  XDAT 7 -4.6280566E-04 0 0 1 0 0 ""
  XDAT 8 5.4357538E-05 0 0 1 0 0 ""
  XDAT 9 5.3965805E-05 0 0 1 0 0 ""
  XDAT 10 -1.8881007E-05 0 0 1 0 0 ""
  XDAT 11 -1.2980213E-06 0 0 1 0 0 ""
  XDAT 12 1.4300798E-06 0 0 1 0 0 ""
  XDAT 13 -9.8782930E-08 0 0 1 0 0 ""
  XDAT 14 -4.7407088E-08 0 0 1 0 0 ""
  XDAT 15 6.8759162E-09 0 0 1 0 0 ""
  XDAT 16 6.8689587E-10 0 0 1 0 0 ""
  XDAT 17 -1.7107481E-10 0 0 1 0 0 ""
  XDAT 18 -1.2623540E-12 0 0 1 0 0 ""
  XDAT 19 1.9335761E-12 0 0 1 0 0 ""
  XDAT 20 -6.5410638E-14 0 0 1 0 0 ""
  XDAT 21 -8.3761467E-15 0 0 1 0 0 ""
  XDAT 22 4.7807633E-16 0 0 1 0 0 ""
  DISZ  4.36
  CONI  -1
  DIAM  7.58 1 0 0 1 ""
  POPS 0 0 0 0 0 0 0 0 1 1 1 1 0 0 0 0
SURF 5
  TYPE STANDARD
  CURV 0.0519696497245609 0 0 0 0
  HIDE 0 0 0 0 0 0 0 0 0 0
  MIRR 2 0
  DISZ  9.35
  GLAS  ___BLANK 1 0 1.88299 40.8 0 0 0 0 0 0
  DIAM  7.41 1 0 0 1 ""
  POPS 0 0 0 0 0 0 0 0 1 1 1 1 0 0 0 0
SURF 6
  TYPE STANDARD
  CURV -0.0650829808005207 0 0 0 0
  HIDE 0 0 0 0 0 0 0 0 0 0
  MIRR 2 0
  DISZ  1.04
  GLAS  ___BLANK 1 0 1.59270 35.3 0 0 0 0 0 0
  DIAM  5.88 1 0 0 1 ""
  POPS 0 0 0 0 0 0 0 0 1 1 1 1 0 0 0 0
SURF 7
  TYPE STANDARD
  CURV 0.0151570267976234 0 0 0 0
  HIDE 0 0 0 0 0 0 0 0 0 0
  MIRR 2 0
  DISZ  3.5
  DIAM  5.88 1 0 0 1 ""
  POPS 0 0 0 0 0 0 0 0 1 1 1 1 0 0 0 0
SURF 8
  STOP
  TYPE STANDARD
  CURV 0 0 0 0 0
  HIDE 0 0 0 0 0 0 0 0 0 0
  MIRR 2 0
  DISZ  4
  DIAM  4.201 1 0 0 1 ""
  POPS 0 0 0 0 0 0 0 0 1 1 1 1 0 0 0 0
SURF 9
  TYPE STANDARD
  CURV -0.00737136960047177 0 0 0 0
  HIDE 0 0 0 0 0 0 0 0 0 0
  MIRR 2 0
  DISZ  0.81
  GLAS  ___BLANK 1 0 1.54072 47.2 0 0 0 0 0 0
  DIAM  4.74 1 0 0 1 ""
  POPS 0 0 0 0 0 0 0 0 1 1 1 1 0 0 0 0
SURF 10
  TYPE STANDARD
  CURV 0.0973994350832765 0 0 0 0
  HIDE 0 0 0 0 0 0 0 0 0 0
  MIRR 2 0
  DISZ  3.56
  GLAS  ___BLANK 1 0 1.49700 81.5 0 0 0 0 0 0
  DIAM  4.74 1 0 0 1 ""
  POPS 0 0 0 0 0 0 0 0 1 1 1 1 0 0 0 0
SURF 11
  TYPE STANDARD
  CURV 0.00321564087722683 0 0 0 0
  HIDE 0 0 0 0 0 0 0 0 0 0
  MIRR 2 0
  DISZ  0.15
  DIAM  5.45 1 0 0 1 ""
  POPS 0 0 0 0 0 0 0 0 1 1 1 1 0 0 0 0
SURF 12
  TYPE STANDARD
  CURV 0.0599880023995201 0 0 0 0
  HIDE 0 0 0 0 0 0 0 0 0 0
  MIRR 2 0
  DISZ  4.58
  GLAS  ___BLANK 1 0 1.59522 67.7 0 0 0 0 0 0
  DIAM  7.74 1 0 0 1 ""
  POPS 0 0 0 0 0 0 0 0 1 1 1 1 0 0 0 0
SURF 13
  TYPE STANDARD
  CURV -0.0258745601324777 0 0 0 0
  HIDE 0 0 0 0 0 0 0 0 0 0
  MIRR 2 0
  DISZ  3.48
  DIAM  7.74 1 0 0 1 ""
  POPS 0 0 0 0 0 0 0 0 1 1 1 1 0 0 0 0
SURF 14
  TYPE XOSPHERE
  CURV -0.0315995702458447 0 0 0 0
  HIDE 0 0 0 0 0 0 0 0 0 0
  MIRR 2 0
  XDAT 1 20 0 0 1 0 0 ""
  XDAT 2 1 0 0 1 0 0 ""
  XDAT 3 0 0 0 1 0 0 ""
  XDAT 4 0 0 0 1 0 0 ""
  XDAT 5 6.6209788E-04 0 0 1 0 0 ""
  XDAT 6 -3.0527109E-04 0 0 1 0 0 ""
  XDAT 7 -3.7260454E-04 0 0 1 0 0 ""
  XDAT 8 5.0663981E-04 0 0 1 0 0 ""
  XDAT 9 -2.4264898E-04 0 0 1 0 0 ""
  XDAT 10 3.8450732E-05 0 0 1 0 0 ""
  XDAT 11 9.5922739E-06 0 0 1 0 0 ""
  XDAT 12 -4.7789385E-06 0 0 1 0 0 ""
  XDAT 13 4.4093736E-07 0 0 1 0 0 ""
  XDAT 14 1.0955244E-07 0 0 1 0 0 ""
  XDAT 15 -2.6889472E-08 0 0 1 0 0 ""
  XDAT 16 5.1554995E-10 0 0 1 0 0 ""
  XDAT 17 4.1805549E-10 0 0 1 0 0 ""
  XDAT 18 -4.3160704E-11 0 0 1 0 0 ""
  XDAT 19 -6.5726519E-13 0 0 1 0 0 ""
  XDAT 20 3.3491667E-13 0 0 1 0 0 ""
  XDAT 21 -1.8401488E-14 0 0 1 0 0 ""
  XDAT 22 2.8240933E-16 0 0 1 0 0 ""
  DISZ  3.99
  CONI  -1
  GLAS  ___BLANK 1 0 1.58312 59.4 0 0 0 0 0 0
  DIAM  8.01 1 0 0 1 ""
  POPS 0 0 0 0 0 0 0 0 1 1 1 1 0 0 0 0
SURF 15
  TYPE XOSPHERE
  CURV -0.0670106546940964 0 0 0 0
  HIDE 0 0 0 0 0 0 0 0 0 0
  MIRR 2 0
  XDAT 1 20 0 0 1 0 0 ""
  XDAT 2 1 0 0 1 0 0 ""
  XDAT 3 0 0 0 1 0 0 ""
  XDAT 4 0 0 0 1 0 0 ""
  XDAT 5 1.8582591E-03 0 0 1 0 0 ""
  XDAT 6 -2.2581890E-03 0 0 1 0 0 ""
  XDAT 7 1.3297504E-03 0 0 1 0 0 ""
  XDAT 8 -2.6424215E-04 0 0 1 0 0 ""
  XDAT 9 -5.0654566E-05 0 0 1 0 0 ""
  XDAT 10 2.8177517E-05 0 0 1 0 0 ""
  XDAT 11 -8.5212341E-07 0 0 1 0 0 ""
  XDAT 12 -1.1794696E-06 0 0 1 0 0 ""
  XDAT 13 1.0703228E-07 0 0 1 0 0 ""
  XDAT 14 3.2734368E-08 0 0 1 0 0 ""
  XDAT 15 -4.4313123E-09 0 0 1 0 0 ""
  XDAT 16 -5.5463438E-10 0 0 1 0 0 ""
  XDAT 17 1.0524468E-10 0 0 1 0 0 ""
  XDAT 18 4.0137487E-12 0 0 1 0 0 ""
  XDAT 19 -1.3923536E-12 0 0 1 0 0 ""
  XDAT 20 2.3442922E-14 0 0 1 0 0 ""
  XDAT 21 7.1987544E-15 0 0 1 0 0 ""
  XDAT 22 -3.4821496E-16 0 0 1 0 0 ""
  DISZ  0.15
  CONI  -1
  DIAM  8.01 1 0 0 1 ""
  POPS 0 0 0 0 0 0 0 0 1 1 1 1 0 0 0 0
SURF 16
  TYPE STANDARD
  CURV -0.040894777736883 0 0 0 0
  HIDE 0 0 0 0 0 0 0 0 0 0
  MIRR 2 0
  DISZ  1.05
  GLAS  ___BLANK 1 0 1.67300 38.1 0 0 0 0 0 0
  DIAM  8.18 1 0 0 1 ""
  POPS 0 0 0 0 0 0 0 0 1 1 1 1 0 0 0 0
SURF 17
  TYPE STANDARD
  CURV 0.0468801275139468 0 0 0 0
  HIDE 0 0 0 0 0 0 0 0 0 0
  MIRR 2 0
  DISZ  8.08
  GLAS  ___BLANK 1 0 1.49700 81.5 0 0 0 0 0 0
  DIAM  8.69 1 0 0 1 ""
  POPS 0 0 0 0 0 0 0 0 1 1 1 1 0 0 0 0
SURF 18
  TYPE STANDARD
  CURV -0.0468801275139468 0 0 0 0
  HIDE 0 0 0 0 0 0 0 0 0 0
  MIRR 2 0
  DISZ  9.96
  DIAM  10.69 1 0 0 1 ""
  POPS 0 0 0 0 0 0 0 0 1 1 1 1 0 0 0 0
SURF 19
  TYPE STANDARD
  CURV 0 0 0 0 0
  HIDE 0 0 0 0 0 0 0 0 0 0
  MIRR 2 0
  DISZ  2.8
  GLAS  ___BLANK 1 0 1.51680 64.2 0 0 0 0 0 0
  DIAM  13.96 1 0 0 1 ""
  POPS 0 0 0 0 0 0 0 0 1 1 1 1 0 0 0 0
SURF 20
  TYPE STANDARD
  CURV 0 0 0 0 0
  HIDE 0 0 0 0 0 0 0 0 0 0
  MIRR 2 0
  DISZ  1.5
  DIAM  13.96 1 0 0 1 ""
  POPS 0 0 0 0 0 0 0 0 1 1 1 1 0 0 0 0
SURF 21
  TYPE STANDARD
  CURV 0.0 0 0 0 0 ""
  HIDE 0 0 0 0 0 0 0 0 0 0
  MIRR 2 0
  DISZ 0
  DIAM 14.2 1 0 0 1 ""
  POPS 0 0 0 0 0 0 0 0 1 1 1 1 0 0 0 0
TOL TOFF   0   0              0              0   0 0 0 0
MNUM 1 1
