VERS 161019 507 33785
MODE SEQ
NAME US 2016/0282590 Example 1 (Fujifilm Fujinon XF16mm F1.4 R WR)
NOTE 0 Prepared and converted by Bill Claff.
PFIL 0 0 0
LANG 0
UNIT MM X W X CM MR CPMM
FNUM 1.44 0
ENVD 20 1 0
GFAC 0 0
RAIM 0 2 1 1 0 1 0 0 0
SDMA 0 1 0
FTYP 3 0 3 3 0 0 0
ROPD 2
HYPR 0
PICB 1
XFLN 0 0 0 0 0 0 0 0 0 0 0 0
YFLN 0 9.94 14.2 0 0 0 0 0 0 0 0 0 0
FWGN 1 1 1 1 1 1 1 1 1 1 1 1
VDXN 0 0 0 0 0 0 0 0 0 0 0 0
VDYN 0 0 0 0 0 0 0 0 0 0 0 0
VCXN 0 0 0 0 0 0 0 0 0 0 0 0
VCYN 0 0 0 0 0 0 0 0 0 0 0 0
VANN 0 0 0 0 0 0 0 0 0 0 0 0
WAVM 1 0.4861327 1
WAVM 2 0.5875618 1
WAVM 3 0.6562725 1
WAVM 4 0.550 1
WAVM 5 0.550 1
WAVM 6 0.550 1
WAVM 7 0.550 1
WAVM 8 0.550 1
WAVM 9 0.550 1
WAVM 10 0.550 1
WAVM 11 0.550 1
WAVM 12 0.550 1
WAVM 13 0.550 1
WAVM 14 0.550 1
WAVM 15 0.550 1
WAVM 16 0.550 1
WAVM 17 0.550 1
WAVM 18 0.550 1
WAVM 19 0.550 1
WAVM 20 0.550 1
WAVM 21 0.550 1
WAVM 22 0.550 1
WAVM 23 0.550 1
WAVM 24 0.550 1
PWAV 2
POLS 1 0 1 0 0 1 0
GSTD 0 100 100 100 100 100 100 0 1 1 0 0 1 1 1 1 1 1
NSCD 100 500 0 1.0E-3 5 1.0E-6 0 0 0 0 0 0 1000000 0 2
SURF 0
  TYPE STANDARD
  CURV 0.0 0 0 0 0 ""
  HIDE 0 0 0 0 0 0 0 0 0 0
  MIRR 2 0
  DISZ INFINITY
  DIAM 0 1 0 0 1 ""
  POPS 0 0 0 0 0 0 0 0 1 1 1 1 0 0 0 0
SURF 1
  TYPE STANDARD
  CURV 0.0260914034044063 0 0 0 0
  HIDE 0 0 0 0 0 0 0 0 0 0
  MIRR 2 0
  DISZ  2.2
  GLAS  ___BLANK 1 0 1.84666 23.78 0 0 0 0 0 0
  DIAM  20.25 1 0 0 1 ""
  POPS 0 0 0 0 0 0 0 0 1 1 1 1 0 0 0 0
SURF 2
  TYPE STANDARD
  CURV 0.0546492881930213 0 0 0 0
  HIDE 0 0 0 0 0 0 0 0 0 0
  MIRR 2 0
  DISZ  6.4628
  DIAM  16.185 1 0 0 1 ""
  POPS 0 0 0 0 0 0 0 0 1 1 1 1 0 0 0 0
SURF 3
  TYPE XOSPHERE
  CURV 0.00986161199882055 0 0 0 0
  HIDE 0 0 0 0 0 0 0 0 0 0
  MIRR 2 0
  XDAT 1 20 0 0 1 0 0 ""
  XDAT 2 1 0 0 1 0 0 ""
  XDAT 3 0 0 0 1 0 0 ""
  XDAT 4 0 0 0 1 0 0 ""
  XDAT 5 -2.6531748E-04 0 0 1 0 0 ""
  XDAT 6 1.1298117E-04 0 0 1 0 0 ""
  XDAT 7 4.1026774E-05 0 0 1 0 0 ""
  XDAT 8 -9.4555654E-06 0 0 1 0 0 ""
  XDAT 9 6.1495285E-07 0 0 1 0 0 ""
  XDAT 10 -9.2607734E-10 0 0 1 0 0 ""
  XDAT 11 -3.2078817E-10 0 0 1 0 0 ""
  XDAT 12 -1.0029111E-10 0 0 1 0 0 ""
  XDAT 13 1.0774764E-12 0 0 1 0 0 ""
  XDAT 14 3.3183604E-13 0 0 1 0 0 ""
  XDAT 15 1.9993012E-14 0 0 1 0 0 ""
  XDAT 16 -1.5700008E-15 0 0 1 0 0 ""
  XDAT 17 -8.1219883E-17 0 0 1 0 0 ""
  XDAT 18 2.0351729E-18 0 0 1 0 0 ""
  XDAT 19 3.8188631E-19 0 0 1 0 0 ""
  XDAT 20 -1.1250958E-20 0 0 1 0 0 ""
  XDAT 21 -3.0246245E-22 0 0 1 0 0 ""
  XDAT 22 1.0493545E-23 0 0 1 0 0 ""
  DISZ  1.8
  CONI  2.0752596
  GLAS  ___BLANK 1 0 1.58313 59.37 0 0 0 0 0 0
  DIAM  17.2 1 0 0 1 ""
  POPS 0 0 0 0 0 0 0 0 1 1 1 1 0 0 0 0
SURF 4
  TYPE XOSPHERE
  CURV 0.0403136401201347 0 0 0 0
  HIDE 0 0 0 0 0 0 0 0 0 0
  MIRR 2 0
  XDAT 1 20 0 0 1 0 0 ""
  XDAT 2 1 0 0 1 0 0 ""
  XDAT 3 0 0 0 1 0 0 ""
  XDAT 4 0 0 0 1 0 0 ""
  XDAT 5 -3.4957907E-04 0 0 1 0 0 ""
  XDAT 6 1.1431746E-04 0 0 1 0 0 ""
  XDAT 7 5.6230975E-05 0 0 1 0 0 ""
  XDAT 8 -1.3625626E-05 0 0 1 0 0 ""
  XDAT 9 1.0481089E-06 0 0 1 0 0 ""
  XDAT 10 -1.4116031E-08 0 0 1 0 0 ""
  XDAT 11 -8.7386914E-10 0 0 1 0 0 ""
  XDAT 12 -1.1803106E-10 0 0 1 0 0 ""
  XDAT 13 5.4917878E-12 0 0 1 0 0 ""
  XDAT 14 4.5666130E-13 0 0 1 0 0 ""
  XDAT 15 1.2608406E-14 0 0 1 0 0 ""
  XDAT 16 -2.8484882E-15 0 0 1 0 0 ""
  XDAT 17 -7.2513713E-17 0 0 1 0 0 ""
  XDAT 18 5.6553464E-18 0 0 1 0 0 ""
  XDAT 19 5.3269960E-19 0 0 1 0 0 ""
  XDAT 20 -2.4152388E-20 0 0 1 0 0 ""
  XDAT 21 -4.4861106E-22 0 0 1 0 0 ""
  XDAT 22 2.2384282E-23 0 0 1 0 0 ""
  DISZ  8.1652
  CONI  -0.00423896
  DIAM  14.79 1 0 0 1 ""
  POPS 0 0 0 0 0 0 0 0 1 1 1 1 0 0 0 0
SURF 5
  TYPE STANDARD
  CURV -0.0184948519579575 0 0 0 0
  HIDE 0 0 0 0 0 0 0 0 0 0
  MIRR 2 0
  DISZ  1.2
  GLAS  ___BLANK 1 0 1.48749 70.24 0 0 0 0 0 0
  DIAM  14.57 1 0 0 1 ""
  POPS 0 0 0 0 0 0 0 0 1 1 1 1 0 0 0 0
SURF 6
  TYPE STANDARD
  CURV 0.0205950316545637 0 0 0 0
  HIDE 0 0 0 0 0 0 0 0 0 0
  MIRR 2 0
  DISZ  0.7482
  DIAM  14.57 1 0 0 1 ""
  POPS 0 0 0 0 0 0 0 0 1 1 1 1 0 0 0 0
SURF 7
  TYPE STANDARD
  CURV 0.0142440808721936 0 0 0 0
  HIDE 0 0 0 0 0 0 0 0 0 0
  MIRR 2 0
  DISZ  5.44
  GLAS  ___BLANK 1 0 2.00100 29.13 0 0 0 0 0 0
  DIAM  14.92 1 0 0 1 ""
  POPS 0 0 0 0 0 0 0 0 1 1 1 1 0 0 0 0
SURF 8
  TYPE STANDARD
  CURV -0.0209929673559358 0 0 0 0
  HIDE 0 0 0 0 0 0 0 0 0 0
  MIRR 2 0
  DISZ  1.38
  GLAS  ___BLANK 1 0 1.51742 52.43 0 0 0 0 0 0
  DIAM  14.92 1 0 0 1 ""
  POPS 0 0 0 0 0 0 0 0 1 1 1 1 0 0 0 0
SURF 9
  TYPE STANDARD
  CURV 0.00371652157366443 0 0 0 0
  HIDE 0 0 0 0 0 0 0 0 0 0
  MIRR 2 0
  DISZ  0.1436
  DIAM  14.92 1 0 0 1 ""
  POPS 0 0 0 0 0 0 0 0 1 1 1 1 0 0 0 0
SURF 10
  TYPE STANDARD
  CURV 0.0355544178141855 0 0 0 0
  HIDE 0 0 0 0 0 0 0 0 0 0
  MIRR 2 0
  DISZ  5.35
  GLAS  ___BLANK 1 0 1.88300 40.76 0 0 0 0 0 0
  DIAM  14.79 1 0 0 1 ""
  POPS 0 0 0 0 0 0 0 0 1 1 1 1 0 0 0 0
SURF 11
  TYPE STANDARD
  CURV 0.00235822971468486 0 0 0 0
  HIDE 0 0 0 0 0 0 0 0 0 0
  MIRR 2 0
  DISZ  5.5671
  DIAM  14.79 1 0 0 1 ""
  POPS 0 0 0 0 0 0 0 0 1 1 1 1 0 0 0 0
SURF 12
  TYPE STANDARD
  CURV 0.0433831950855517 0 0 0 0
  HIDE 0 0 0 0 0 0 0 0 0 0
  MIRR 2 0
  DISZ  3.32
  GLAS  ___BLANK 1 0 1.81600 46.62 0 0 0 0 0 0
  DIAM  10.16 1 0 0 1 ""
  POPS 0 0 0 0 0 0 0 0 1 1 1 1 0 0 0 0
SURF 13
  TYPE STANDARD
  CURV 0.00366267496140456 0 0 0 0
  HIDE 0 0 0 0 0 0 0 0 0 0
  MIRR 2 0
  DISZ  0.13
  DIAM  10.16 1 0 0 1 ""
  POPS 0 0 0 0 0 0 0 0 1 1 1 1 0 0 0 0
SURF 14
  TYPE STANDARD
  CURV 0.0201858307579578 0 0 0 0
  HIDE 0 0 0 0 0 0 0 0 0 0
  MIRR 2 0
  DISZ  1
  GLAS  ___BLANK 1 0 1.92286 18.90 0 0 0 0 0 0
  DIAM  9.9 1 0 0 1 ""
  POPS 0 0 0 0 0 0 0 0 1 1 1 1 0 0 0 0
SURF 15
  TYPE STANDARD
  CURV 0.0609979260705136 0 0 0 0
  HIDE 0 0 0 0 0 0 0 0 0 0
  MIRR 2 0
  DISZ  4.3829
  DIAM  8.46 1 0 0 1 ""
  POPS 0 0 0 0 0 0 0 0 1 1 1 1 0 0 0 0
SURF 16
  STOP
  TYPE STANDARD
  CURV 0 0 0 0 0
  HIDE 0 0 0 0 0 0 0 0 0 0
  MIRR 2 0
  DISZ  3.8277
  DIAM  7.786 1 0 0 1 ""
  POPS 0 0 0 0 0 0 0 0 1 1 1 1 0 0 0 0
SURF 17
  TYPE XOSPHERE
  CURV -0.0851904859265317 0 0 0 0
  HIDE 0 0 0 0 0 0 0 0 0 0
  MIRR 2 0
  XDAT 1 20 0 0 1 0 0 ""
  XDAT 2 1 0 0 1 0 0 ""
  XDAT 3 0 0 0 1 0 0 ""
  XDAT 4 0 0 0 1 0 0 ""
  XDAT 5 -1.3557524E-05 0 0 1 0 0 ""
  XDAT 6 4.0045257E-06 0 0 1 0 0 ""
  XDAT 7 -2.7170685E-05 0 0 1 0 0 ""
  XDAT 8 8.9246958E-06 0 0 1 0 0 ""
  XDAT 9 -4.6664264E-07 0 0 1 0 0 ""
  XDAT 10 -1.4315616E-07 0 0 1 0 0 ""
  XDAT 11 9.7408852E-09 0 0 1 0 0 ""
  XDAT 12 7.5130458E-09 0 0 1 0 0 ""
  XDAT 13 -2.0995964E-10 0 0 1 0 0 ""
  XDAT 14 -3.4306612E-10 0 0 1 0 0 ""
  XDAT 15 4.1858436E-11 0 0 1 0 0 ""
  XDAT 16 -7.3662898E-13 0 0 1 0 0 ""
  XDAT 17 1.9227467E-13 0 0 1 0 0 ""
  XDAT 18 -3.9619707E-14 0 0 1 0 0 ""
  XDAT 19 -1.6950300E-15 0 0 1 0 0 ""
  XDAT 20 6.0255568E-16 0 0 1 0 0 ""
  XDAT 21 -3.2537737E-17 0 0 1 0 0 ""
  XDAT 22 4.4063532E-19 0 0 1 0 0 ""
  DISZ  1.87
  CONI  -0.51438177
  GLAS  ___BLANK 1 0 1.80348 40.45 0 0 0 0 0 0
  DIAM  8.15 1 0 0 1 ""
  POPS 0 0 0 0 0 0 0 0 1 1 1 1 0 0 0 0
SURF 18
  TYPE XOSPHERE
  CURV -0.0757443778735523 0 0 0 0
  HIDE 0 0 0 0 0 0 0 0 0 0
  MIRR 2 0
  XDAT 1 20 0 0 1 0 0 ""
  XDAT 2 1 0 0 1 0 0 ""
  XDAT 3 0 0 0 1 0 0 ""
  XDAT 4 0 0 0 1 0 0 ""
  XDAT 5 7.0877725E-05 0 0 1 0 0 ""
  XDAT 6 4.3287259E-05 0 0 1 0 0 ""
  XDAT 7 2.1066997E-05 0 0 1 0 0 ""
  XDAT 8 -5.3988528E-06 0 0 1 0 0 ""
  XDAT 9 6.4638873E-07 0 0 1 0 0 ""
  XDAT 10 1.3600375E-07 0 0 1 0 0 ""
  XDAT 11 -7.8107596E-09 0 0 1 0 0 ""
  XDAT 12 -5.0942183E-09 0 0 1 0 0 ""
  XDAT 13 6.9123977E-11 0 0 1 0 0 ""
  XDAT 14 1.9329420E-10 0 0 1 0 0 ""
  XDAT 15 -2.0721434E-11 0 0 1 0 0 ""
  XDAT 16 1.3892855E-13 0 0 1 0 0 ""
  XDAT 17 -9.5589830E-14 0 0 1 0 0 ""
  XDAT 18 2.0599768E-14 0 0 1 0 0 ""
  XDAT 19 1.0951853E-15 0 0 1 0 0 ""
  XDAT 20 -3.1633447E-16 0 0 1 0 0 ""
  XDAT 21 1.3778648E-17 0 0 1 0 0 ""
  XDAT 22 -4.4916662E-20 0 0 1 0 0 ""
  DISZ  1.1383
  CONI  -0.21846116
  DIAM  9.59 1 0 0 1 ""
  POPS 0 0 0 0 0 0 0 0 1 1 1 1 0 0 0 0
SURF 19
  TYPE STANDARD
  CURV -0.033696468947019 0 0 0 0
  HIDE 0 0 0 0 0 0 0 0 0 0
  MIRR 2 0
  DISZ  4.52
  GLAS  ___BLANK 1 0 1.59282 68.62 0 0 0 0 0 0
  DIAM  8.85 1 0 0 1 ""
  POPS 0 0 0 0 0 0 0 0 1 1 1 1 0 0 0 0
SURF 20
  TYPE STANDARD
  CURV -0.0898714837781972 0 0 0 0
  HIDE 0 0 0 0 0 0 0 0 0 0
  MIRR 2 0
  DISZ  1.3
  GLAS  ___BLANK 1 0 1.64769 33.79 0 0 0 0 0 0
  DIAM  8.85 1 0 0 1 ""
  POPS 0 0 0 0 0 0 0 0 1 1 1 1 0 0 0 0
SURF 21
  TYPE STANDARD
  CURV -0.0627860690270043 0 0 0 0
  HIDE 0 0 0 0 0 0 0 0 0 0
  MIRR 2 0
  DISZ  0.13
  DIAM  9.16 1 0 0 1 ""
  POPS 0 0 0 0 0 0 0 0 1 1 1 1 0 0 0 0
SURF 22
  TYPE STANDARD
  CURV 0 0 0 0 0
  HIDE 0 0 0 0 0 0 0 0 0 0
  MIRR 2 0
  DISZ  6.01
  GLAS  ___BLANK 1 0 1.49700 81.61 0 0 0 0 0 0
  DIAM  11.6 1 0 0 1 ""
  POPS 0 0 0 0 0 0 0 0 1 1 1 1 0 0 0 0
SURF 23
  TYPE STANDARD
  CURV -0.0575857740103885 0 0 0 0
  HIDE 0 0 0 0 0 0 0 0 0 0
  MIRR 2 0
  DISZ  1.0017
  DIAM  11.6 1 0 0 1 ""
  POPS 0 0 0 0 0 0 0 0 1 1 1 1 0 0 0 0
SURF 24
  TYPE STANDARD
  CURV 0.00793902196012864 0 0 0 0
  HIDE 0 0 0 0 0 0 0 0 0 0
  MIRR 2 0
  DISZ  2.8
  GLAS  ___BLANK 1 0 1.94595 17.98 0 0 0 0 0 0
  DIAM  12.08 1 0 0 1 ""
  POPS 0 0 0 0 0 0 0 0 1 1 1 1 0 0 0 0
SURF 25
  TYPE STANDARD
  CURV 0.0189089891443493 0 0 0 0
  HIDE 0 0 0 0 0 0 0 0 0 0
  MIRR 2 0
  DISZ  13.7445
  DIAM  12.08 1 0 0 1 ""
  POPS 0 0 0 0 0 0 0 0 1 1 1 1 0 0 0 0
SURF 26
  TYPE STANDARD
  CURV 0 0 0 0 0
  HIDE 0 0 0 0 0 0 0 0 0 0
  MIRR 2 0
  DISZ  2.85
  GLAS  ___BLANK 1 0 1.51680 64.20 0 0 0 0 0 0
  DIAM  13.9 1 0 0 1 ""
  POPS 0 0 0 0 0 0 0 0 1 1 1 1 0 0 0 0
SURF 27
  TYPE STANDARD
  CURV 0 0 0 0 0
  HIDE 0 0 0 0 0 0 0 0 0 0
  MIRR 2 0
  DISZ  2.1206
  DIAM  13.9 1 0 0 1 ""
  POPS 0 0 0 0 0 0 0 0 1 1 1 1 0 0 0 0
SURF 28
  TYPE STANDARD
  CURV 0.0 0 0 0 0 ""
  HIDE 0 0 0 0 0 0 0 0 0 0
  MIRR 2 0
  DISZ 0
  DIAM 14.2 1 0 0 1 ""
  POPS 0 0 0 0 0 0 0 0 1 1 1 1 0 0 0 0
TOL TOFF   0   0              0              0   0 0 0 0
MNUM 3 1
THIC   0   1 1.00E+10 0 0 0 1 1 1 0 0
THIC   0   2 513.30 0 0 0 1 1 1 0 0
THIC   0   3 61.39 0 0 0 1 1 1 0 0
THIC   11   1 5.5671 0 0 0 1 1 1 0 0
THIC   11   2 5.0428 0 0 0 1 1 1 0 0
THIC   11   3 2.3627 0 0 0 1 1 1 0 0
THIC   23   1 1.0017 0 0 0 1 1 1 0 0
THIC   23   2 1.0660 0 0 0 1 1 1 0 0
THIC   23   3 1.9168 0 0 0 1 1 1 0 0
THIC   25   1 13.7445 0 0 0 1 1 1 0 0
THIC   25   2 14.2045 0 0 0 1 1 1 0 0
THIC   25   3 16.0338 0 0 0 1 1 1 0 0
