VERS 161019 507 33785
MODE SEQ
NAME US 2019/0302431 Example 1 (Fujifilm Fujinon XF8-16mm F2.8 R LM WR)
NOTE 0 Prepared and converted by Bill Claff.
PFIL 0 0 0
LANG 0
UNIT MM X W X CM MR CPMM
FLOA
ENVD 20 1 0
GFAC 0 0
RAIM 0 2 1 1 0 1 0 0 0
SDMA 0 1 0
FTYP 3 0 3 3 0 0 0
ROPD 2
HYPR 0
PICB 1
XFLN 0 0 0 0 0 0 0 0 0 0 0 0
YFLN 0 10.01 14.3 0 0 0 0 0 0 0 0 0 0
FWGN 1 1 1 1 1 1 1 1 1 1 1 1
VDXN 0 0 0 0 0 0 0 0 0 0 0 0
VDYN 0 0 0 0 0 0 0 0 0 0 0 0
VCXN 0 0 0 0 0 0 0 0 0 0 0 0
VCYN 0 0 0 0 0 0 0 0 0 0 0 0
VANN 0 0 0 0 0 0 0 0 0 0 0 0
WAVM 1 0.4861327 1
WAVM 2 0.5875618 1
WAVM 3 0.6562725 1
WAVM 4 0.550 1
WAVM 5 0.550 1
WAVM 6 0.550 1
WAVM 7 0.550 1
WAVM 8 0.550 1
WAVM 9 0.550 1
WAVM 10 0.550 1
WAVM 11 0.550 1
WAVM 12 0.550 1
WAVM 13 0.550 1
WAVM 14 0.550 1
WAVM 15 0.550 1
WAVM 16 0.550 1
WAVM 17 0.550 1
WAVM 18 0.550 1
WAVM 19 0.550 1
WAVM 20 0.550 1
WAVM 21 0.550 1
WAVM 22 0.550 1
WAVM 23 0.550 1
WAVM 24 0.550 1
PWAV 2
POLS 1 0 1 0 0 1 0
GSTD 0 100 100 100 100 100 100 0 1 1 0 0 1 1 1 1 1 1
NSCD 100 500 0 1.0E-3 5 1.0E-6 0 0 0 0 0 0 1000000 0 2
SURF 0
  TYPE STANDARD
  CURV 0.0 0 0 0 0 ""
  HIDE 0 0 0 0 0 0 0 0 0 0
  MIRR 2 0
  DISZ INFINITY
  DIAM 0 1 0 0 1 ""
  POPS 0 0 0 0 0 0 0 0 1 1 1 1 0 0 0 0
SURF 1
  TYPE STANDARD
  CURV 0.0238433927812698 0 0 0 0
  HIDE 0 0 0 0 0 0 0 0 0 0
  MIRR 2 0
  DISZ  2.1
  GLAS  ___BLANK 1 0 1.85150 40.78 0 0 0 0 0 0
  DIAM  28.78 1 0 0 1 ""
  POPS 0 0 0 0 0 0 0 0 1 1 1 1 0 0 0 0
SURF 2
  TYPE STANDARD
  CURV 0.0411834984311146 0 0 0 0
  HIDE 0 0 0 0 0 0 0 0 0 0
  MIRR 2 0
  DISZ  6.178
  DIAM  21.805 1 0 0 1 ""
  POPS 0 0 0 0 0 0 0 0 1 1 1 1 0 0 0 0
SURF 3
  TYPE XOSPHERE
  CURV 0.0133333333333333 0 0 0 0
  HIDE 0 0 0 0 0 0 0 0 0 0
  MIRR 2 0
  XDAT 1 20 0 0 1 0 0 ""
  XDAT 2 1 0 0 1 0 0 ""
  XDAT 3 0 0 0 1 0 0 ""
  XDAT 4 0 0 0 1 0 0 ""
  XDAT 5 0 0 0 1 0 0 ""
  XDAT 6 1.8160996E-04 0 0 1 0 0 ""
  XDAT 7 -1.1335952E-05 0 0 1 0 0 ""
  XDAT 8 -1.4335425E-06 0 0 1 0 0 ""
  XDAT 9 1.6657704E-07 0 0 1 0 0 ""
  XDAT 10 3.7176528E-09 0 0 1 0 0 ""
  XDAT 11 -1.1789882E-09 0 0 1 0 0 ""
  XDAT 12 1.6846045E-11 0 0 1 0 0 ""
  XDAT 13 4.9683664E-12 0 0 1 0 0 ""
  XDAT 14 -1.6509787E-13 0 0 1 0 0 ""
  XDAT 15 -1.2889391E-14 0 0 1 0 0 ""
  XDAT 16 5.7379998E-16 0 0 1 0 0 ""
  XDAT 17 2.0021309E-17 0 0 1 0 0 ""
  XDAT 18 -1.0471255E-18 0 0 1 0 0 ""
  XDAT 19 -1.6950892E-20 0 0 1 0 0 ""
  XDAT 20 1.0001019E-21 0 0 1 0 0 ""
  XDAT 21 5.9701858E-24 0 0 1 0 0 ""
  XDAT 22 -3.9636710E-25 0 0 1 0 0 ""
  DISZ  2.5
  CONI  0
  GLAS  ___BLANK 1 0 1.69259 53.07 0 0 0 0 0 0
  DIAM  22.5 1 0 0 1 ""
  POPS 0 0 0 0 0 0 0 0 1 1 1 1 0 0 0 0
SURF 4
  TYPE XOSPHERE
  CURV 0.0541340847144292 0 0 0 0
  HIDE 0 0 0 0 0 0 0 0 0 0
  MIRR 2 0
  XDAT 1 20 0 0 1 0 0 ""
  XDAT 2 1 0 0 1 0 0 ""
  XDAT 3 0 0 0 1 0 0 ""
  XDAT 4 0 0 0 1 0 0 ""
  XDAT 5 0 0 0 1 0 0 ""
  XDAT 6 1.8468610E-04 0 0 1 0 0 ""
  XDAT 7 -1.2145091E-05 0 0 1 0 0 ""
  XDAT 8 -1.2166255E-06 0 0 1 0 0 ""
  XDAT 9 7.3739848E-09 0 0 1 0 0 ""
  XDAT 10 1.1634818E-08 0 0 1 0 0 ""
  XDAT 11 1.7527294E-09 0 0 1 0 0 ""
  XDAT 12 -2.3439242E-10 0 0 1 0 0 ""
  XDAT 13 -2.0890135E-11 0 0 1 0 0 ""
  XDAT 14 2.6854226E-12 0 0 1 0 0 ""
  XDAT 15 1.1950808E-13 0 0 1 0 0 ""
  XDAT 16 -1.6261627E-14 0 0 1 0 0 ""
  XDAT 17 -3.8891310E-16 0 0 1 0 0 ""
  XDAT 18 5.3876680E-17 0 0 1 0 0 ""
  XDAT 19 6.9841033E-19 0 0 1 0 0 ""
  XDAT 20 -9.2860078E-20 0 0 1 0 0 ""
  XDAT 21 -5.4301162E-22 0 0 1 0 0 ""
  XDAT 22 6.5318111E-23 0 0 1 0 0 ""
  DISZ  7.784
  CONI  0
  DIAM  16.77 1 0 0 1 ""
  POPS 0 0 0 0 0 0 0 0 1 1 1 1 0 0 0 0
SURF 5
  TYPE XOSPHERE
  CURV 0.0275537201104133 0 0 0 0
  HIDE 0 0 0 0 0 0 0 0 0 0
  MIRR 2 0
  XDAT 1 20 0 0 1 0 0 ""
  XDAT 2 1 0 0 1 0 0 ""
  XDAT 3 0 0 0 1 0 0 ""
  XDAT 4 0 0 0 1 0 0 ""
  XDAT 5 0 0 0 1 0 0 ""
  XDAT 6 -3.5121597E-05 0 0 1 0 0 ""
  XDAT 7 -1.7847803E-05 0 0 1 0 0 ""
  XDAT 8 2.3507898E-06 0 0 1 0 0 ""
  XDAT 9 2.6791047E-07 0 0 1 0 0 ""
  XDAT 10 -4.7251861E-08 0 0 1 0 0 ""
  XDAT 11 -2.3578362E-09 0 0 1 0 0 ""
  XDAT 12 5.0985133E-10 0 0 1 0 0 ""
  XDAT 13 1.3769111E-11 0 0 1 0 0 ""
  XDAT 14 -3.4119027E-12 0 0 1 0 0 ""
  XDAT 15 -5.0951086E-14 0 0 1 0 0 ""
  XDAT 16 1.4344945E-14 0 0 1 0 0 ""
  XDAT 17 1.0991901E-16 0 0 1 0 0 ""
  XDAT 18 -3.6564916E-17 0 0 1 0 0 ""
  XDAT 19 -1.2242734E-19 0 0 1 0 0 ""
  XDAT 20 5.1534781E-20 0 0 1 0 0 ""
  XDAT 21 5.2084646E-23 0 0 1 0 0 ""
  XDAT 22 -3.0822936E-23 0 0 1 0 0 ""
  DISZ  2.1
  CONI  0
  GLAS  ___BLANK 1 0 1.85108 40.12 0 0 0 0 0 0
  DIAM  18.2 1 0 0 1 ""
  POPS 0 0 0 0 0 0 0 0 1 1 1 1 0 0 0 0
SURF 6
  TYPE XOSPHERE
  CURV 0.0584795321637427 0 0 0 0
  HIDE 0 0 0 0 0 0 0 0 0 0
  MIRR 2 0
  XDAT 1 20 0 0 1 0 0 ""
  XDAT 2 1 0 0 1 0 0 ""
  XDAT 3 0 0 0 1 0 0 ""
  XDAT 4 0 0 0 1 0 0 ""
  XDAT 5 0 0 0 1 0 0 ""
  XDAT 6 -5.1194646E-05 0 0 1 0 0 ""
  XDAT 7 -1.8058170E-05 0 0 1 0 0 ""
  XDAT 8 3.5437269E-06 0 0 1 0 0 ""
  XDAT 9 1.0407126E-07 0 0 1 0 0 ""
  XDAT 10 -6.5002915E-08 0 0 1 0 0 ""
  XDAT 11 1.5980818E-09 0 0 1 0 0 ""
  XDAT 12 9.6469129E-10 0 0 1 0 0 ""
  XDAT 13 -1.1394206E-10 0 0 1 0 0 ""
  XDAT 14 -3.5085860E-12 0 0 1 0 0 ""
  XDAT 15 1.5437474E-12 0 0 1 0 0 ""
  XDAT 16 -4.8263251E-14 0 0 1 0 0 ""
  XDAT 17 -8.5442321E-15 0 0 1 0 0 ""
  XDAT 18 4.8212604E-16 0 0 1 0 0 ""
  XDAT 19 2.0638114E-17 0 0 1 0 0 ""
  XDAT 20 -1.5464338E-18 0 0 1 0 0 ""
  XDAT 21 -1.7486813E-20 0 0 1 0 0 ""
  XDAT 22 1.6996115E-21 0 0 1 0 0 ""
  DISZ  8.354
  CONI  0
  DIAM  13.76 1 0 0 1 ""
  POPS 0 0 0 0 0 0 0 0 1 1 1 1 0 0 0 0
SURF 7
  TYPE STANDARD
  CURV -0.0215458593921525 0 0 0 0
  HIDE 0 0 0 0 0 0 0 0 0 0
  MIRR 2 0
  DISZ  1.12
  GLAS  ___BLANK 1 0 1.43875 94.66 0 0 0 0 0 0
  DIAM  13.76 1 0 0 1 ""
  POPS 0 0 0 0 0 0 0 0 1 1 1 1 0 0 0 0
SURF 8
  TYPE STANDARD
  CURV 0.0379939209726444 0 0 0 0
  HIDE 0 0 0 0 0 0 0 0 0 0
  MIRR 2 0
  DISZ  5.1
  GLAS  ___BLANK 1 0 1.95375 32.32 0 0 0 0 0 0
  DIAM  13.83 1 0 0 1 ""
  POPS 0 0 0 0 0 0 0 0 1 1 1 1 0 0 0 0
SURF 9
  TYPE STANDARD
  CURV 0.00272646197662495 0 0 0 0
  HIDE 0 0 0 0 0 0 0 0 0 0
  MIRR 2 0
  DISZ  29.531
  DIAM  13.83 1 0 0 1 ""
  POPS 0 0 0 0 0 0 0 0 1 1 1 1 0 0 0 0
SURF 10
  STOP
  TYPE STANDARD
  CURV 0 0 0 0 0
  HIDE 0 0 0 0 0 0 0 0 0 0
  MIRR 2 0
  DISZ  1.311
  DIAM  6.138 1 0 0 1 ""
  POPS 0 0 0 0 0 0 0 0 1 1 1 1 0 0 0 0
SURF 11
  TYPE XOSPHERE
  CURV 0.0380790345593894 0 0 0 0
  HIDE 0 0 0 0 0 0 0 0 0 0
  MIRR 2 0
  XDAT 1 20 0 0 1 0 0 ""
  XDAT 2 1 0 0 1 0 0 ""
  XDAT 3 0 0 0 1 0 0 ""
  XDAT 4 0 0 0 1 0 0 ""
  XDAT 5 0 0 0 1 0 0 ""
  XDAT 6 3.4130173E-05 0 0 1 0 0 ""
  XDAT 7 -2.6217914E-05 0 0 1 0 0 ""
  XDAT 8 9.8676344E-06 0 0 1 0 0 ""
  XDAT 9 -4.8898264E-07 0 0 1 0 0 ""
  XDAT 10 -7.2967595E-07 0 0 1 0 0 ""
  XDAT 11 1.9381422E-07 0 0 1 0 0 ""
  XDAT 12 1.5648615E-09 0 0 1 0 0 ""
  XDAT 13 -6.6656712E-09 0 0 1 0 0 ""
  XDAT 14 4.6499647E-10 0 0 1 0 0 ""
  XDAT 15 1.2073678E-10 0 0 1 0 0 ""
  XDAT 16 -1.2738591E-11 0 0 1 0 0 ""
  XDAT 17 -1.4421479E-12 0 0 1 0 0 ""
  XDAT 18 1.7978446E-13 0 0 1 0 0 ""
  XDAT 19 1.0435769E-14 0 0 1 0 0 ""
  XDAT 20 -1.3885918E-15 0 0 1 0 0 ""
  XDAT 21 -3.2975909E-17 0 0 1 0 0 ""
  XDAT 22 4.4854674E-18 0 0 1 0 0 ""
  DISZ  4.88
  CONI  0
  GLAS  ___BLANK 1 0 1.69350 53.18 0 0 0 0 0 0
  DIAM  8.84 1 0 0 1 ""
  POPS 0 0 0 0 0 0 0 0 1 1 1 1 0 0 0 0
SURF 12
  TYPE XOSPHERE
  CURV -0.0283436348274114 0 0 0 0
  HIDE 0 0 0 0 0 0 0 0 0 0
  MIRR 2 0
  XDAT 1 20 0 0 1 0 0 ""
  XDAT 2 1 0 0 1 0 0 ""
  XDAT 3 0 0 0 1 0 0 ""
  XDAT 4 0 0 0 1 0 0 ""
  XDAT 5 0 0 0 1 0 0 ""
  XDAT 6 6.2420625E-05 0 0 1 0 0 ""
  XDAT 7 -2.1062733E-05 0 0 1 0 0 ""
  XDAT 8 8.4905269E-06 0 0 1 0 0 ""
  XDAT 9 -1.1036213E-06 0 0 1 0 0 ""
  XDAT 10 -2.5485692E-07 0 0 1 0 0 ""
  XDAT 11 1.1852547E-07 0 0 1 0 0 ""
  XDAT 12 -1.3534098E-08 0 0 1 0 0 ""
  XDAT 13 -1.6863962E-09 0 0 1 0 0 ""
  XDAT 14 6.5309998E-10 0 0 1 0 0 ""
  XDAT 15 -4.1165896E-11 0 0 1 0 0 ""
  XDAT 16 -9.2191136E-12 0 0 1 0 0 ""
  XDAT 17 1.4785823E-12 0 0 1 0 0 ""
  XDAT 18 2.0460884E-14 0 0 1 0 0 ""
  XDAT 19 -1.6419747E-14 0 0 1 0 0 ""
  XDAT 20 6.1368314E-16 0 0 1 0 0 ""
  XDAT 21 6.4961582E-17 0 0 1 0 0 ""
  XDAT 22 -4.1335786E-18 0 0 1 0 0 ""
  DISZ  0.203
  CONI  0
  DIAM  8.84 1 0 0 1 ""
  POPS 0 0 0 0 0 0 0 0 1 1 1 1 0 0 0 0
SURF 13
  TYPE STANDARD
  CURV -0.0174137756896726 0 0 0 0
  HIDE 0 0 0 0 0 0 0 0 0 0
  MIRR 2 0
  DISZ  0.82
  GLAS  ___BLANK 1 0 1.75500 52.32 0 0 0 0 0 0
  DIAM  8.8 1 0 0 1 ""
  POPS 0 0 0 0 0 0 0 0 1 1 1 1 0 0 0 0
SURF 14
  TYPE STANDARD
  CURV 0.0508465958204098 0 0 0 0
  HIDE 0 0 0 0 0 0 0 0 0 0
  MIRR 2 0
  DISZ  2.8
  GLAS  ___BLANK 1 0 1.59522 67.73 0 0 0 0 0 0
  DIAM  8.28 1 0 0 1 ""
  POPS 0 0 0 0 0 0 0 0 1 1 1 1 0 0 0 0
SURF 15
  TYPE STANDARD
  CURV 0.00729148362004662 0 0 0 0
  HIDE 0 0 0 0 0 0 0 0 0 0
  MIRR 2 0
  DISZ  1.893
  DIAM  8.28 1 0 0 1 ""
  POPS 0 0 0 0 0 0 0 0 1 1 1 1 0 0 0 0
SURF 16
  TYPE STANDARD
  CURV -0.00360688528431201 0 0 0 0
  HIDE 0 0 0 0 0 0 0 0 0 0
  MIRR 2 0
  DISZ  0.79
  GLAS  ___BLANK 1 0 1.81600 46.62 0 0 0 0 0 0
  DIAM  8.68 1 0 0 1 ""
  POPS 0 0 0 0 0 0 0 0 1 1 1 1 0 0 0 0
SURF 17
  TYPE STANDARD
  CURV 0.0335807112394641 0 0 0 0
  HIDE 0 0 0 0 0 0 0 0 0 0
  MIRR 2 0
  DISZ  2.8
  GLAS  ___BLANK 1 0 1.64769 33.79 0 0 0 0 0 0
  DIAM  7.79 1 0 0 1 ""
  POPS 0 0 0 0 0 0 0 0 1 1 1 1 0 0 0 0
SURF 18
  TYPE STANDARD
  CURV -0.0147541370600316 0 0 0 0
  HIDE 0 0 0 0 0 0 0 0 0 0
  MIRR 2 0
  DISZ  3.357
  DIAM  7.79 1 0 0 1 ""
  POPS 0 0 0 0 0 0 0 0 1 1 1 1 0 0 0 0
SURF 19
  TYPE STANDARD
  CURV -0.00641599296601859 0 0 0 0
  HIDE 0 0 0 0 0 0 0 0 0 0
  MIRR 2 0
  DISZ  0.81
  GLAS  ___BLANK 1 0 1.81600 46.62 0 0 0 0 0 0
  DIAM  9.1 1 0 0 1 ""
  POPS 0 0 0 0 0 0 0 0 1 1 1 1 0 0 0 0
SURF 20
  TYPE STANDARD
  CURV 0.0489883897516289 0 0 0 0
  HIDE 0 0 0 0 0 0 0 0 0 0
  MIRR 2 0
  DISZ  4.36
  GLAS  ___BLANK 1 0 1.59282 68.62 0 0 0 0 0 0
  DIAM  8.85 1 0 0 1 ""
  POPS 0 0 0 0 0 0 0 0 1 1 1 1 0 0 0 0
SURF 21
  TYPE STANDARD
  CURV -0.0280741865995731 0 0 0 0
  HIDE 0 0 0 0 0 0 0 0 0 0
  MIRR 2 0
  DISZ  2.1
  DIAM  8.85 1 0 0 1 ""
  POPS 0 0 0 0 0 0 0 0 1 1 1 1 0 0 0 0
SURF 22
  TYPE STANDARD
  CURV 0.0237941199494898 0 0 0 0
  HIDE 0 0 0 0 0 0 0 0 0 0
  MIRR 2 0
  DISZ  1.01
  GLAS  ___BLANK 1 0 1.85150 40.78 0 0 0 0 0 0
  DIAM  10 1 0 0 1 ""
  POPS 0 0 0 0 0 0 0 0 1 1 1 1 0 0 0 0
SURF 23
  TYPE STANDARD
  CURV 0.0548095368594135 0 0 0 0
  HIDE 0 0 0 0 0 0 0 0 0 0
  MIRR 2 0
  DISZ  4.99
  GLAS  ___BLANK 1 0 1.43875 94.66 0 0 0 0 0 0
  DIAM  9.41 1 0 0 1 ""
  POPS 0 0 0 0 0 0 0 0 1 1 1 1 0 0 0 0
SURF 24
  TYPE STANDARD
  CURV -0.0175872136735662 0 0 0 0
  HIDE 0 0 0 0 0 0 0 0 0 0
  MIRR 2 0
  DISZ  0.15
  DIAM  9.41 1 0 0 1 ""
  POPS 0 0 0 0 0 0 0 0 1 1 1 1 0 0 0 0
SURF 25
  TYPE STANDARD
  CURV 0.0387825987133485 0 0 0 0
  HIDE 0 0 0 0 0 0 0 0 0 0
  MIRR 2 0
  DISZ  5.8
  GLAS  ___BLANK 1 0 1.43875 94.66 0 0 0 0 0 0
  DIAM  10.06 1 0 0 1 ""
  POPS 0 0 0 0 0 0 0 0 1 1 1 1 0 0 0 0
SURF 26
  TYPE STANDARD
  CURV -0.0387825987133485 0 0 0 0
  HIDE 0 0 0 0 0 0 0 0 0 0
  MIRR 2 0
  DISZ  2.1
  DIAM  10.06 1 0 0 1 ""
  POPS 0 0 0 0 0 0 0 0 1 1 1 1 0 0 0 0
SURF 27
  TYPE XOSPHERE
  CURV -0.0155943959978542 0 0 0 0
  HIDE 0 0 0 0 0 0 0 0 0 0
  MIRR 2 0
  XDAT 1 20 0 0 1 0 0 ""
  XDAT 2 1 0 0 1 0 0 ""
  XDAT 3 0 0 0 1 0 0 ""
  XDAT 4 0 0 0 1 0 0 ""
  XDAT 5 0 0 0 1 0 0 ""
  XDAT 6 -6.0807770E-05 0 0 1 0 0 ""
  XDAT 7 3.6227550E-05 0 0 1 0 0 ""
  XDAT 8 -2.5310378E-05 0 0 1 0 0 ""
  XDAT 9 9.4296047E-06 0 0 1 0 0 ""
  XDAT 10 -1.6820493E-06 0 0 1 0 0 ""
  XDAT 11 -6.1219487E-10 0 0 1 0 0 ""
  XDAT 12 5.3585618E-08 0 0 1 0 0 ""
  XDAT 13 -7.2268338E-09 0 0 1 0 0 ""
  XDAT 14 -2.3410749E-10 0 0 1 0 0 ""
  XDAT 15 1.2768330E-10 0 0 1 0 0 ""
  XDAT 16 -6.9388519E-12 0 0 1 0 0 ""
  XDAT 17 -6.7668240E-13 0 0 1 0 0 ""
  XDAT 18 8.4897976E-14 0 0 1 0 0 ""
  XDAT 19 -9.8085392E-16 0 0 1 0 0 ""
  XDAT 20 -2.5071105E-16 0 0 1 0 0 ""
  XDAT 21 1.3030111E-17 0 0 1 0 0 ""
  XDAT 22 -1.9352472E-19 0 0 1 0 0 ""
  DISZ  2.69
  CONI  0
  GLAS  ___BLANK 1 0 1.85343 40.56 0 0 0 0 0 0
  DIAM  10.11 1 0 0 1 ""
  POPS 0 0 0 0 0 0 0 0 1 1 1 1 0 0 0 0
SURF 28
  TYPE XOSPHERE
  CURV -0.046601579793555 0 0 0 0
  HIDE 0 0 0 0 0 0 0 0 0 0
  MIRR 2 0
  XDAT 1 20 0 0 1 0 0 ""
  XDAT 2 1 0 0 1 0 0 ""
  XDAT 3 0 0 0 1 0 0 ""
  XDAT 4 0 0 0 1 0 0 ""
  XDAT 5 0 0 0 1 0 0 ""
  XDAT 6 2.9716437E-05 0 0 1 0 0 ""
  XDAT 7 7.6242490E-07 0 0 1 0 0 ""
  XDAT 8 -1.7092045E-06 0 0 1 0 0 ""
  XDAT 9 4.5860772E-07 0 0 1 0 0 ""
  XDAT 10 1.4557727E-08 0 0 1 0 0 ""
  XDAT 11 -2.5304394E-08 0 0 1 0 0 ""
  XDAT 12 1.6289649E-09 0 0 1 0 0 ""
  XDAT 13 6.6338124E-10 0 0 1 0 0 ""
  XDAT 14 -6.7515269E-11 0 0 1 0 0 ""
  XDAT 15 -9.9334783E-12 0 0 1 0 0 ""
  XDAT 16 1.2373518E-12 0 0 1 0 0 ""
  XDAT 17 8.6500487E-14 0 0 1 0 0 ""
  XDAT 18 -1.2293866E-14 0 0 1 0 0 ""
  XDAT 19 -4.0666189E-16 0 0 1 0 0 ""
  XDAT 20 6.4330812E-17 0 0 1 0 0 ""
  XDAT 21 7.9572817E-19 0 0 1 0 0 ""
  XDAT 22 -1.3910445E-19 0 0 1 0 0 ""
  DISZ  0.1
  CONI  0
  DIAM  10.11 1 0 0 1 ""
  POPS 0 0 0 0 0 0 0 0 1 1 1 1 0 0 0 0
SURF 29
  TYPE STANDARD
  CURV 0 0 0 0 0
  HIDE 0 0 0 0 0 0 0 0 0 0
  MIRR 2 0
  DISZ  0.89
  GLAS  ___BLANK 1 0 1.88300 40.76 0 0 0 0 0 0
  DIAM  9.75 1 0 0 1 ""
  POPS 0 0 0 0 0 0 0 0 1 1 1 1 0 0 0 0
SURF 30
  TYPE STANDARD
  CURV 0.081906790072897 0 0 0 0
  HIDE 0 0 0 0 0 0 0 0 0 0
  MIRR 2 0
  DISZ  5.68
  GLAS  ___BLANK 1 0 1.49700 81.54 0 0 0 0 0 0
  DIAM  9.31 1 0 0 1 ""
  POPS 0 0 0 0 0 0 0 0 1 1 1 1 0 0 0 0
SURF 31
  TYPE STANDARD
  CURV -0.00564876009715867 0 0 0 0
  HIDE 0 0 0 0 0 0 0 0 0 0
  MIRR 2 0
  DISZ  0.81
  GLAS  ___BLANK 1 0 1.88300 39.22 0 0 0 0 0 0
  DIAM  9.31 1 0 0 1 ""
  POPS 0 0 0 0 0 0 0 0 1 1 1 1 0 0 0 0
SURF 32
  TYPE STANDARD
  CURV 0.0360441800723983 0 0 0 0
  HIDE 0 0 0 0 0 0 0 0 0 0
  MIRR 2 0
  DISZ  3.447
  DIAM  9 1 0 0 1 ""
  POPS 0 0 0 0 0 0 0 0 1 1 1 1 0 0 0 0
SURF 33
  TYPE STANDARD
  CURV 0.00644526452557987 0 0 0 0
  HIDE 0 0 0 0 0 0 0 0 0 0
  MIRR 2 0
  DISZ  2.5
  GLAS  ___BLANK 1 0 1.94595 17.98 0 0 0 0 0 0
  DIAM  12.72 1 0 0 1 ""
  POPS 0 0 0 0 0 0 0 0 1 1 1 1 0 0 0 0
SURF 34
  TYPE STANDARD
  CURV -0.0100415348003949 0 0 0 0
  HIDE 0 0 0 0 0 0 0 0 0 0
  MIRR 2 0
  DISZ  8.949
  DIAM  12.72 1 0 0 1 ""
  POPS 0 0 0 0 0 0 0 0 1 1 1 1 0 0 0 0
SURF 35
  TYPE STANDARD
  CURV 0 0 0 0 0
  HIDE 0 0 0 0 0 0 0 0 0 0
  MIRR 2 0
  DISZ  2.85
  GLAS  ___BLANK 1 0 1.51680 64.20 0 0 0 0 0 0
  DIAM  14.9 1 0 0 1 ""
  POPS 0 0 0 0 0 0 0 0 1 1 1 1 0 0 0 0
SURF 36
  TYPE STANDARD
  CURV 0 0 0 0 0
  HIDE 0 0 0 0 0 0 0 0 0 0
  MIRR 2 0
  DISZ  1
  DIAM  14.9 1 0 0 1 ""
  POPS 0 0 0 0 0 0 0 0 1 1 1 1 0 0 0 0
SURF 37
  TYPE STANDARD
  CURV 0.0 0 0 0 0 ""
  HIDE 0 0 0 0 0 0 0 0 0 0
  MIRR 2 0
  DISZ 0
  DIAM 14.3 1 0 0 1 ""
  POPS 0 0 0 0 0 0 0 0 1 1 1 1 0 0 0 0
TOL TOFF   0   0              0              0   0 0 0 0
MNUM 4 1
SDIA   10   1 6.138 0 0 0 1 1 1 0 0
SDIA   10   2 7.008 0 0 0 1 1 1 0 0
SDIA   10   3 6.138 0 0 0 1 1 1 0 0
SDIA   10   4 7.008 0 0 0 1 1 1 0 0
THIC   0   1 1.00E+10 0 0 0 1 1 1 0 0
THIC   0   2 1.00E+10 0 0 0 1 1 1 0 0
THIC   0   3 366.14 0 0 0 1 1 1 0 0
THIC   0   4 382.92 0 0 0 1 1 1 0 0
THIC   9   1 29.531 0 0 0 1 1 1 0 0
THIC   9   2 2.986 0 0 0 1 1 1 0 0
THIC   9   3 29.531 0 0 0 1 1 1 0 0
THIC   9   4 2.986 0 0 0 1 1 1 0 0
THIC   18   1 3.357 0 0 0 1 1 1 0 0
THIC   18   2 2.809 0 0 0 1 1 1 0 0
THIC   18   3 3.357 0 0 0 1 1 1 0 0
THIC   18   4 2.809 0 0 0 1 1 1 0 0
THIC   26   1 2.100 0 0 0 1 1 1 0 0
THIC   26   2 6.601 0 0 0 1 1 1 0 0
THIC   26   3 2.222 0 0 0 1 1 1 0 0
THIC   26   4 6.900 0 0 0 1 1 1 0 0
THIC   32   1 3.447 0 0 0 1 1 1 0 0
THIC   32   2 9.257 0 0 0 1 1 1 0 0
THIC   32   3 3.325 0 0 0 1 1 1 0 0
THIC   32   4 8.958 0 0 0 1 1 1 0 0
