VERS 161019 507 33785
MODE SEQ
NAME US 10,168,507 Example 4 (Fujifilm Fujinon XF50mm F2 R WR)
NOTE 0 Prepared and converted by Bill Claff.
PFIL 0 0 0
LANG 0
UNIT MM X W X CM MR CPMM
FNUM 2.06 0
ENVD 20 1 0
GFAC 0 0
RAIM 0 2 1 1 0 1 0 0 0
SDMA 0 1 0
FTYP 3 0 3 3 0 0 0
ROPD 2
HYPR 0
PICB 1
XFLN 0 0 0 0 0 0 0 0 0 0 0 0
YFLN 0 9.94 14.2 0 0 0 0 0 0 0 0 0 0
FWGN 1 1 1 1 1 1 1 1 1 1 1 1
VDXN 0 0 0 0 0 0 0 0 0 0 0 0
VDYN 0 0 0 0 0 0 0 0 0 0 0 0
VCXN 0 0 0 0 0 0 0 0 0 0 0 0
VCYN 0 0 0 0 0 0 0 0 0 0 0 0
VANN 0 0 0 0 0 0 0 0 0 0 0 0
WAVM 1 0.4861327 1
WAVM 2 0.5875618 1
WAVM 3 0.6562725 1
WAVM 4 0.550 1
WAVM 5 0.550 1
WAVM 6 0.550 1
WAVM 7 0.550 1
WAVM 8 0.550 1
WAVM 9 0.550 1
WAVM 10 0.550 1
WAVM 11 0.550 1
WAVM 12 0.550 1
WAVM 13 0.550 1
WAVM 14 0.550 1
WAVM 15 0.550 1
WAVM 16 0.550 1
WAVM 17 0.550 1
WAVM 18 0.550 1
WAVM 19 0.550 1
WAVM 20 0.550 1
WAVM 21 0.550 1
WAVM 22 0.550 1
WAVM 23 0.550 1
WAVM 24 0.550 1
PWAV 2
POLS 1 0 1 0 0 1 0
GSTD 0 100 100 100 100 100 100 0 1 1 0 0 1 1 1 1 1 1
NSCD 100 500 0 1.0E-3 5 1.0E-6 0 0 0 0 0 0 1000000 0 2
SURF 0
  TYPE STANDARD
  CURV 0.0 0 0 0 0 ""
  HIDE 0 0 0 0 0 0 0 0 0 0
  MIRR 2 0
  DISZ INFINITY
  DIAM 0 1 0 0 1 ""
  POPS 0 0 0 0 0 0 0 0 1 1 1 1 0 0 0 0
SURF 1
  TYPE STANDARD
  CURV 0.0264774412200805 0 0 0 0
  HIDE 0 0 0 0 0 0 0 0 0 0
  MIRR 2 0
  DISZ  4.1
  GLAS  ___BLANK 1 0 1.74400 44.9 0 0 0 0 0 0
  DIAM  14.02 1 0 0 1 ""
  POPS 0 0 0 0 0 0 0 0 1 1 1 1 0 0 0 0
SURF 2
  TYPE STANDARD
  CURV -0.00241802297605432 0 0 0 0
  HIDE 0 0 0 0 0 0 0 0 0 0
  MIRR 2 0
  DISZ  0.61
  DIAM  11.605 1 0 0 1 ""
  POPS 0 0 0 0 0 0 0 0 1 1 1 1 0 0 0 0
SURF 3
  TYPE STANDARD
  CURV 0.0384896655248066 0 0 0 0
  HIDE 0 0 0 0 0 0 0 0 0 0
  MIRR 2 0
  DISZ  3.64
  GLAS  ___BLANK 1 0 1.74400 44.9 0 0 0 0 0 0
  DIAM  12 1 0 0 1 ""
  POPS 0 0 0 0 0 0 0 0 1 1 1 1 0 0 0 0
SURF 4
  TYPE STANDARD
  CURV 0.0210583949291385 0 0 0 0
  HIDE 0 0 0 0 0 0 0 0 0 0
  MIRR 2 0
  DISZ  1.25
  DIAM  10.79 1 0 0 1 ""
  POPS 0 0 0 0 0 0 0 0 1 1 1 1 0 0 0 0
SURF 5
  TYPE STANDARD
  CURV 0 0 0 0 0
  HIDE 0 0 0 0 0 0 0 0 0 0
  MIRR 2 0
  DISZ  1.05
  GLAS  ___BLANK 1 0 1.63980 34.5 0 0 0 0 0 0
  DIAM  11 1 0 0 1 ""
  POPS 0 0 0 0 0 0 0 0 1 1 1 1 0 0 0 0
SURF 6
  TYPE STANDARD
  CURV 0.0589761736258552 0 0 0 0
  HIDE 0 0 0 0 0 0 0 0 0 0
  MIRR 2 0
  DISZ  4.48
  DIAM  9.21 1 0 0 1 ""
  POPS 0 0 0 0 0 0 0 0 1 1 1 1 0 0 0 0
SURF 7
  STOP
  TYPE STANDARD
  CURV 0 0 0 0 0
  HIDE 0 0 0 0 0 0 0 0 0 0
  MIRR 2 0
  DISZ  2.31
  DIAM  8.7295 1 0 0 1 ""
  POPS 0 0 0 0 0 0 0 0 1 1 1 1 0 0 0 0
SURF 8
  TYPE XOSPHERE
  CURV 0.00107764775358938 0 0 0 0
  HIDE 0 0 0 0 0 0 0 0 0 0
  MIRR 2 0
  XDAT 1 20 0 0 1 0 0 ""
  XDAT 2 1 0 0 1 0 0 ""
  XDAT 3 0 0 0 1 0 0 ""
  XDAT 4 0 0 0 1 0 0 ""
  XDAT 5 0 0 0 1 0 0 ""
  XDAT 6 3.83019E-05 0 0 1 0 0 ""
  XDAT 7 -3.64486E-05 0 0 1 0 0 ""
  XDAT 8 1.04932E-05 0 0 1 0 0 ""
  XDAT 9 -1.02376E-06 0 0 1 0 0 ""
  XDAT 10 -6.02244E-08 0 0 1 0 0 ""
  XDAT 11 9.16082E-09 0 0 1 0 0 ""
  XDAT 12 1.10921E-09 0 0 1 0 0 ""
  XDAT 13 4.80971E-12 0 0 1 0 0 ""
  XDAT 14 -1.36186E-11 0 0 1 0 0 ""
  XDAT 15 -1.27980E-12 0 0 1 0 0 ""
  XDAT 16 -5.10890E-14 0 0 1 0 0 ""
  XDAT 17 1.52556E-14 0 0 1 0 0 ""
  XDAT 18 2.19198E-15 0 0 1 0 0 ""
  XDAT 19 9.42675E-17 0 0 1 0 0 ""
  XDAT 20 -1.52178E-17 0 0 1 0 0 ""
  XDAT 21 -4.11781E-18 0 0 1 0 0 ""
  XDAT 22 2.98266E-19 0 0 1 0 0 ""
  DISZ  3.31
  CONI  0
  GLAS  ___BLANK 1 0 1.49710 81.6 0 0 0 0 0 0
  DIAM  10.025 1 0 0 1 ""
  POPS 0 0 0 0 0 0 0 0 1 1 1 1 0 0 0 0
SURF 9
  TYPE XOSPHERE
  CURV -0.0381359164060712 0 0 0 0
  HIDE 0 0 0 0 0 0 0 0 0 0
  MIRR 2 0
  XDAT 1 20 0 0 1 0 0 ""
  XDAT 2 1 0 0 1 0 0 ""
  XDAT 3 0 0 0 1 0 0 ""
  XDAT 4 0 0 0 1 0 0 ""
  XDAT 5 0 0 0 1 0 0 ""
  XDAT 6 6.01013E-05 0 0 1 0 0 ""
  XDAT 7 -3.54957E-05 0 0 1 0 0 ""
  XDAT 8 1.12054E-05 0 0 1 0 0 ""
  XDAT 9 -1.44317E-06 0 0 1 0 0 ""
  XDAT 10 1.67985E-09 0 0 1 0 0 ""
  XDAT 11 1.14919E-08 0 0 1 0 0 ""
  XDAT 12 4.60187E-10 0 0 1 0 0 ""
  XDAT 13 -6.26534E-11 0 0 1 0 0 ""
  XDAT 14 -1.10665E-11 0 0 1 0 0 ""
  XDAT 15 -2.78187E-13 0 0 1 0 0 ""
  XDAT 16 3.65356E-14 0 0 1 0 0 ""
  XDAT 17 1.31258E-14 0 0 1 0 0 ""
  XDAT 18 2.00085E-16 0 0 1 0 0 ""
  XDAT 19 1.33604E-17 0 0 1 0 0 ""
  XDAT 20 -8.90148E-18 0 0 1 0 0 ""
  XDAT 21 -1.06155E-18 0 0 1 0 0 ""
  XDAT 22 9.96009E-20 0 0 1 0 0 ""
  DISZ  0.9
  CONI  0
  DIAM  10.025 1 0 0 1 ""
  POPS 0 0 0 0 0 0 0 0 1 1 1 1 0 0 0 0
SURF 10
  TYPE STANDARD
  CURV -0.0498753117206983 0 0 0 0
  HIDE 0 0 0 0 0 0 0 0 0 0
  MIRR 2 0
  DISZ  2.01
  GLAS  ___BLANK 1 0 1.68893 31.2 0 0 0 0 0 0
  DIAM  9.01 1 0 0 1 ""
  POPS 0 0 0 0 0 0 0 0 1 1 1 1 0 0 0 0
SURF 11
  TYPE STANDARD
  CURV 0.0498753117206983 0 0 0 0
  HIDE 0 0 0 0 0 0 0 0 0 0
  MIRR 2 0
  DISZ  5.62
  GLAS  ___BLANK 1 0 1.88300 39.2 0 0 0 0 0 0
  DIAM  9.98 1 0 0 1 ""
  POPS 0 0 0 0 0 0 0 0 1 1 1 1 0 0 0 0
SURF 12
  TYPE STANDARD
  CURV -0.0386877127824203 0 0 0 0
  HIDE 0 0 0 0 0 0 0 0 0 0
  MIRR 2 0
  DISZ  1.8
  DIAM  9.98 1 0 0 1 ""
  POPS 0 0 0 0 0 0 0 0 1 1 1 1 0 0 0 0
SURF 13
  TYPE STANDARD
  CURV 0.00139805586351619 0 0 0 0
  HIDE 0 0 0 0 0 0 0 0 0 0
  MIRR 2 0
  DISZ  0.9
  GLAS  ___BLANK 1 0 1.48749 70.2 0 0 0 0 0 0
  DIAM  9.58 1 0 0 1 ""
  POPS 0 0 0 0 0 0 0 0 1 1 1 1 0 0 0 0
SURF 14
  TYPE STANDARD
  CURV 0.0536855102807752 0 0 0 0
  HIDE 0 0 0 0 0 0 0 0 0 0
  MIRR 2 0
  DISZ  9.73
  DIAM  7.76 1 0 0 1 ""
  POPS 0 0 0 0 0 0 0 0 1 1 1 1 0 0 0 0
SURF 15
  TYPE STANDARD
  CURV -0.00606310479470327 0 0 0 0
  HIDE 0 0 0 0 0 0 0 0 0 0
  MIRR 2 0
  DISZ  1.18
  GLAS  ___BLANK 1 0 1.54072 47.2 0 0 0 0 0 0
  DIAM  9.84 1 0 0 1 ""
  POPS 0 0 0 0 0 0 0 0 1 1 1 1 0 0 0 0
SURF 16
  TYPE STANDARD
  CURV 0.041291601288298 0 0 0 0
  HIDE 0 0 0 0 0 0 0 0 0 0
  MIRR 2 0
  DISZ  5.97
  GLAS  ___BLANK 1 0 1.72916 54.7 0 0 0 0 0 0
  DIAM  11.95 1 0 0 1 ""
  POPS 0 0 0 0 0 0 0 0 1 1 1 1 0 0 0 0
SURF 17
  TYPE STANDARD
  CURV -0.0222930646275944 0 0 0 0
  HIDE 0 0 0 0 0 0 0 0 0 0
  MIRR 2 0
  DISZ  20.28
  DIAM  11.95 1 0 0 1 ""
  POPS 0 0 0 0 0 0 0 0 1 1 1 1 0 0 0 0
SURF 18
  TYPE STANDARD
  CURV 0 0 0 0 0
  HIDE 0 0 0 0 0 0 0 0 0 0
  MIRR 2 0
  DISZ  2.85
  GLAS  ___BLANK 1 0 1.51742 52.4 0 0 0 0 0 0
  DIAM  20.09 1 0 0 1 ""
  POPS 0 0 0 0 0 0 0 0 1 1 1 1 0 0 0 0
SURF 19
  TYPE STANDARD
  CURV 0 0 0 0 0
  HIDE 0 0 0 0 0 0 0 0 0 0
  MIRR 2 0
  DISZ  1.1
  DIAM  20.09 1 0 0 1 ""
  POPS 0 0 0 0 0 0 0 0 1 1 1 1 0 0 0 0
SURF 20
  TYPE STANDARD
  CURV 0.0 0 0 0 0 ""
  HIDE 0 0 0 0 0 0 0 0 0 0
  MIRR 2 0
  DISZ 0
  DIAM 14.2 1 0 0 1 ""
  POPS 0 0 0 0 0 0 0 0 1 1 1 1 0 0 0 0
TOL TOFF   0   0              0              0   0 0 0 0
MNUM 2 1
THIC   0   1 1.00E+10 0 0 0 1 1 1 0 0
THIC   0   2 1000 0 0 0 1 1 1 0 0
THIC   12   1 1.80 0 0 0 1 1 1 0 0
THIC   12   2 3.51 0 0 0 1 1 1 0 0
THIC   14   1 9.73 0 0 0 1 1 1 0 0
THIC   14   2 8.02 0 0 0 1 1 1 0 0
