VERS 161019 507 33785
MODE SEQ
NAME US 9,651,761 Example 1 (Fujifilm Fujinon XF18-135mm F3.5-5.6 R LM OIS WR)
NOTE 0 Prepared and converted by Bill Claff.
PFIL 0 0 0
LANG 0
UNIT MM X W X CM MR CPMM
FLOA
ENVD 20 1 0
GFAC 0 0
RAIM 0 2 1 1 0 1 0 0 0
SDMA 0 1 0
FTYP 3 0 3 3 0 0 0
ROPD 2
HYPR 0
PICB 1
XFLN 0 0 0 0 0 0 0 0 0 0 0 0
YFLN 0 10.255 14.65 0 0 0 0 0 0 0 0 0 0
FWGN 1 1 1 1 1 1 1 1 1 1 1 1
VDXN 0 0 0 0 0 0 0 0 0 0 0 0
VDYN 0 0 0 0 0 0 0 0 0 0 0 0
VCXN 0 0 0 0 0 0 0 0 0 0 0 0
VCYN 0 0 0 0 0 0 0 0 0 0 0 0
VANN 0 0 0 0 0 0 0 0 0 0 0 0
WAVM 1 0.4861327 1
WAVM 2 0.5875618 1
WAVM 3 0.6562725 1
WAVM 4 0.550 1
WAVM 5 0.550 1
WAVM 6 0.550 1
WAVM 7 0.550 1
WAVM 8 0.550 1
WAVM 9 0.550 1
WAVM 10 0.550 1
WAVM 11 0.550 1
WAVM 12 0.550 1
WAVM 13 0.550 1
WAVM 14 0.550 1
WAVM 15 0.550 1
WAVM 16 0.550 1
WAVM 17 0.550 1
WAVM 18 0.550 1
WAVM 19 0.550 1
WAVM 20 0.550 1
WAVM 21 0.550 1
WAVM 22 0.550 1
WAVM 23 0.550 1
WAVM 24 0.550 1
PWAV 2
POLS 1 0 1 0 0 1 0
GSTD 0 100 100 100 100 100 100 0 1 1 0 0 1 1 1 1 1 1
NSCD 100 500 0 1.0E-3 5 1.0E-6 0 0 0 0 0 0 1000000 0 2
SURF 0
  TYPE STANDARD
  CURV 0.0 0 0 0 0 ""
  HIDE 0 0 0 0 0 0 0 0 0 0
  MIRR 2 0
  DISZ INFINITY
  DIAM 0 1 0 0 1 ""
  POPS 0 0 0 0 0 0 0 0 1 1 1 1 0 0 0 0
SURF 1
  TYPE STANDARD
  CURV 0.00868644227906881 0 0 0 0
  HIDE 0 0 0 0 0 0 0 0 0 0
  MIRR 2 0
  DISZ  1.61
  GLAS  ___BLANK 1 0 1.92286 20.88 0 0 0 0 0 0
  DIAM  24.97 1 0 0 1 ""
  POPS 0 0 0 0 0 0 0 0 1 1 1 1 0 0 0 0
SURF 2
  TYPE STANDARD
  CURV 0.0161420500403551 0 0 0 0
  HIDE 0 0 0 0 0 0 0 0 0 0
  MIRR 2 0
  DISZ  5.4
  GLAS  ___BLANK 1 0 1.59282 68.63 0 0 0 0 0 0
  DIAM  22.24 1 0 0 1 ""
  POPS 0 0 0 0 0 0 0 0 1 1 1 1 0 0 0 0
SURF 3
  TYPE STANDARD
  CURV 0 0 0 0 0
  HIDE 0 0 0 0 0 0 0 0 0 0
  MIRR 2 0
  DISZ  0.1
  DIAM  22.24 1 0 0 1 ""
  POPS 0 0 0 0 0 0 0 0 1 1 1 1 0 0 0 0
SURF 4
  TYPE STANDARD
  CURV 0.0198688299583808 0 0 0 0
  HIDE 0 0 0 0 0 0 0 0 0 0
  MIRR 2 0
  DISZ  4
  GLAS  ___BLANK 1 0 1.75500 52.32 0 0 0 0 0 0
  DIAM  19.65 1 0 0 1 ""
  POPS 0 0 0 0 0 0 0 0 1 1 1 1 0 0 0 0
SURF 5
  TYPE STANDARD
  CURV 0.00623749615926174 0 0 0 0
  HIDE 0 0 0 0 0 0 0 0 0 0
  MIRR 2 0
  DISZ  0.698
  DIAM  19.65 1 0 0 1 ""
  POPS 0 0 0 0 0 0 0 0 1 1 1 1 0 0 0 0
SURF 6
  TYPE XOSPHERE
  CURV 0.00114855538207137 0 0 0 0
  HIDE 0 0 0 0 0 0 0 0 0 0
  MIRR 2 0
  XDAT 1 20 0 0 1 0 0 ""
  XDAT 2 1 0 0 1 0 0 ""
  XDAT 3 0 0 0 1 0 0 ""
  XDAT 4 0 0 0 1 0 0 ""
  XDAT 5 -3.3258659E-05 0 0 1 0 0 ""
  XDAT 6 1.0879994E-04 0 0 1 0 0 ""
  XDAT 7 -4.7885502E-06 0 0 1 0 0 ""
  XDAT 8 -1.0759633E-06 0 0 1 0 0 ""
  XDAT 9 6.1277394E-08 0 0 1 0 0 ""
  XDAT 10 4.4147811E-09 0 0 1 0 0 ""
  XDAT 11 -3.4318863E-11 0 0 1 0 0 ""
  XDAT 12 -1.6729044E-11 0 0 1 0 0 ""
  XDAT 13 -9.9458644E-13 0 0 1 0 0 ""
  XDAT 14 3.6090358E-15 0 0 1 0 0 ""
  XDAT 15 2.0883127E-15 0 0 1 0 0 ""
  XDAT 16 2.1746094E-16 0 0 1 0 0 ""
  XDAT 17 1.1722253E-17 0 0 1 0 0 ""
  XDAT 18 1.5033988E-19 0 0 1 0 0 ""
  XDAT 19 -4.0529382E-20 0 0 1 0 0 ""
  XDAT 20 -4.5240895E-21 0 0 1 0 0 ""
  XDAT 21 -1.9098322E-22 0 0 1 0 0 ""
  XDAT 22 2.1242397E-23 0 0 1 0 0 ""
  DISZ  1.25
  CONI  0
  GLAS  ___BLANK 1 0 1.85135 40.23 0 0 0 0 0 0
  DIAM  14.6 1 0 0 1 ""
  POPS 0 0 0 0 0 0 0 0 1 1 1 1 0 0 0 0
SURF 7
  TYPE XOSPHERE
  CURV 0.0601729973674314 0 0 0 0
  HIDE 0 0 0 0 0 0 0 0 0 0
  MIRR 2 0
  XDAT 1 20 0 0 1 0 0 ""
  XDAT 2 1 0 0 1 0 0 ""
  XDAT 3 0 0 0 1 0 0 ""
  XDAT 4 0 0 0 1 0 0 ""
  XDAT 5 -1.3257457E-06 0 0 1 0 0 ""
  XDAT 6 1.0274592E-04 0 0 1 0 0 ""
  XDAT 7 -3.8403367E-06 0 0 1 0 0 ""
  XDAT 8 4.2461037E-09 0 0 1 0 0 ""
  XDAT 9 -1.0911228E-07 0 0 1 0 0 ""
  XDAT 10 3.6932216E-09 0 0 1 0 0 ""
  XDAT 11 9.9033512E-10 0 0 1 0 0 ""
  XDAT 12 -1.4923235E-11 0 0 1 0 0 ""
  XDAT 13 7.5628602E-12 0 0 1 0 0 ""
  XDAT 14 -1.1009805E-12 0 0 1 0 0 ""
  XDAT 15 -4.1239435E-14 0 0 1 0 0 ""
  XDAT 16 2.3398595E-15 0 0 1 0 0 ""
  XDAT 17 4.1733591E-16 0 0 1 0 0 ""
  XDAT 18 2.2479475E-17 0 0 1 0 0 ""
  XDAT 19 -8.7519908E-19 0 0 1 0 0 ""
  XDAT 20 -3.2736360E-19 0 0 1 0 0 ""
  XDAT 21 -3.0000033E-20 0 0 1 0 0 ""
  XDAT 22 3.6292592E-21 0 0 1 0 0 ""
  DISZ  5.892
  CONI  0
  DIAM  10.745 1 0 0 1 ""
  POPS 0 0 0 0 0 0 0 0 1 1 1 1 0 0 0 0
SURF 8
  TYPE STANDARD
  CURV -0.0209050026507543 0 0 0 0
  HIDE 0 0 0 0 0 0 0 0 0 0
  MIRR 2 0
  DISZ  0.85
  GLAS  ___BLANK 1 0 1.83481 42.73 0 0 0 0 0 0
  DIAM  10.745 1 0 0 1 ""
  POPS 0 0 0 0 0 0 0 0 1 1 1 1 0 0 0 0
SURF 9
  TYPE STANDARD
  CURV 0.0276061137603778 0 0 0 0
  HIDE 0 0 0 0 0 0 0 0 0 0
  MIRR 2 0
  DISZ  0.44
  DIAM  11.93 1 0 0 1 ""
  POPS 0 0 0 0 0 0 0 0 1 1 1 1 0 0 0 0
SURF 10
  TYPE STANDARD
  CURV 0.0347701156419276 0 0 0 0
  HIDE 0 0 0 0 0 0 0 0 0 0
  MIRR 2 0
  DISZ  4.58
  GLAS  ___BLANK 1 0 1.92286 20.88 0 0 0 0 0 0
  DIAM  11.18 1 0 0 1 ""
  POPS 0 0 0 0 0 0 0 0 1 1 1 1 0 0 0 0
SURF 11
  TYPE STANDARD
  CURV -0.0202921995567372 0 0 0 0
  HIDE 0 0 0 0 0 0 0 0 0 0
  MIRR 2 0
  DISZ  3.091
  DIAM  11.18 1 0 0 1 ""
  POPS 0 0 0 0 0 0 0 0 1 1 1 1 0 0 0 0
SURF 12
  TYPE XOSPHERE
  CURV -0.0272562372491915 0 0 0 0
  HIDE 0 0 0 0 0 0 0 0 0 0
  MIRR 2 0
  XDAT 1 20 0 0 1 0 0 ""
  XDAT 2 1 0 0 1 0 0 ""
  XDAT 3 0 0 0 1 0 0 ""
  XDAT 4 0 0 0 1 0 0 ""
  XDAT 5 -2.5716568E-04 0 0 1 0 0 ""
  XDAT 6 -3.1477418E-05 0 0 1 0 0 ""
  XDAT 7 -5.8230201E-07 0 0 1 0 0 ""
  XDAT 8 1.3471177E-06 0 0 1 0 0 ""
  XDAT 9 -6.6131579E-08 0 0 1 0 0 ""
  XDAT 10 -1.1914342E-09 0 0 1 0 0 ""
  XDAT 11 -2.4884705E-09 0 0 1 0 0 ""
  XDAT 12 2.7859801E-10 0 0 1 0 0 ""
  XDAT 13 9.3821157E-12 0 0 1 0 0 ""
  XDAT 14 4.7688895E-13 0 0 1 0 0 ""
  XDAT 15 -3.7218163E-14 0 0 1 0 0 ""
  XDAT 16 -1.5438437E-14 0 0 1 0 0 ""
  XDAT 17 -2.1576117E-15 0 0 1 0 0 ""
  XDAT 18 -2.3652804E-16 0 0 1 0 0 ""
  XDAT 19 -2.0527067E-17 0 0 1 0 0 ""
  XDAT 20 6.8754879E-18 0 0 1 0 0 ""
  XDAT 21 1.2534597E-18 0 0 1 0 0 ""
  XDAT 22 -1.3017061E-19 0 0 1 0 0 ""
  DISZ  1
  CONI  0
  GLAS  ___BLANK 1 0 1.79839 45.28 0 0 0 0 0 0
  DIAM  9 1 0 0 1 ""
  POPS 0 0 0 0 0 0 0 0 1 1 1 1 0 0 0 0
SURF 13
  TYPE XOSPHERE
  CURV 0.00500000125000031 0 0 0 0
  HIDE 0 0 0 0 0 0 0 0 0 0
  MIRR 2 0
  XDAT 1 20 0 0 1 0 0 ""
  XDAT 2 1 0 0 1 0 0 ""
  XDAT 3 0 0 0 1 0 0 ""
  XDAT 4 0 0 0 1 0 0 ""
  XDAT 5 -2.4949403E-04 0 0 1 0 0 ""
  XDAT 6 -3.5725409E-05 0 0 1 0 0 ""
  XDAT 7 2.1839917E-06 0 0 1 0 0 ""
  XDAT 8 4.3156603E-07 0 0 1 0 0 ""
  XDAT 9 4.6890150E-08 0 0 1 0 0 ""
  XDAT 10 -2.7142956E-09 0 0 1 0 0 ""
  XDAT 11 -1.3765897E-09 0 0 1 0 0 ""
  XDAT 12 -1.1766821E-10 0 0 1 0 0 ""
  XDAT 13 9.5832042E-12 0 0 1 0 0 ""
  XDAT 14 2.4935568E-12 0 0 1 0 0 ""
  XDAT 15 2.8498926E-13 0 0 1 0 0 ""
  XDAT 16 8.7246413E-15 0 0 1 0 0 ""
  XDAT 17 6.5806925E-16 0 0 1 0 0 ""
  XDAT 18 -2.7329827E-16 0 0 1 0 0 ""
  XDAT 19 -1.7352286E-16 0 0 1 0 0 ""
  XDAT 20 -6.9614104E-17 0 0 1 0 0 ""
  XDAT 21 1.7448607E-17 0 0 1 0 0 ""
  XDAT 22 -9.1035356E-19 0 0 1 0 0 ""
  DISZ  20.999
  CONI  0
  DIAM  9 1 0 0 1 ""
  POPS 0 0 0 0 0 0 0 0 1 1 1 1 0 0 0 0
SURF 14
  TYPE XOSPHERE
  CURV 0.0577381206703627 0 0 0 0
  HIDE 0 0 0 0 0 0 0 0 0 0
  MIRR 2 0
  XDAT 1 20 0 0 1 0 0 ""
  XDAT 2 1 0 0 1 0 0 ""
  XDAT 3 0 0 0 1 0 0 ""
  XDAT 4 0 0 0 1 0 0 ""
  XDAT 5 -2.5260169E-05 0 0 1 0 0 ""
  XDAT 6 7.5611598E-06 0 0 1 0 0 ""
  XDAT 7 -8.8679250E-06 0 0 1 0 0 ""
  XDAT 8 1.3986681E-06 0 0 1 0 0 ""
  XDAT 9 -3.8239999E-08 0 0 1 0 0 ""
  XDAT 10 -6.2990664E-09 0 0 1 0 0 ""
  XDAT 11 -1.6339604E-11 0 0 1 0 0 ""
  XDAT 12 3.5819503E-11 0 0 1 0 0 ""
  XDAT 13 -8.8035859E-12 0 0 1 0 0 ""
  XDAT 14 -5.7183112E-13 0 0 1 0 0 ""
  XDAT 15 8.6147165E-14 0 0 1 0 0 ""
  XDAT 16 3.2149749E-14 0 0 1 0 0 ""
  XDAT 17 3.9749647E-15 0 0 1 0 0 ""
  XDAT 18 -1.5337120E-17 0 0 1 0 0 ""
  XDAT 19 -1.4810442E-16 0 0 1 0 0 ""
  XDAT 20 -3.1323886E-17 0 0 1 0 0 ""
  XDAT 21 7.9878135E-18 0 0 1 0 0 ""
  XDAT 22 -4.0881988E-19 0 0 1 0 0 ""
  DISZ  4
  CONI  0
  GLAS  ___BLANK 1 0 1.56867 58.50 0 0 0 0 0 0
  DIAM  8.93 1 0 0 1 ""
  POPS 0 0 0 0 0 0 0 0 1 1 1 1 0 0 0 0
SURF 15
  TYPE XOSPHERE
  CURV -0.000664501773050211 0 0 0 0
  HIDE 0 0 0 0 0 0 0 0 0 0
  MIRR 2 0
  XDAT 1 20 0 0 1 0 0 ""
  XDAT 2 1 0 0 1 0 0 ""
  XDAT 3 0 0 0 1 0 0 ""
  XDAT 4 0 0 0 1 0 0 ""
  XDAT 5 -3.2153387E-05 0 0 1 0 0 ""
  XDAT 6 3.5024607E-05 0 0 1 0 0 ""
  XDAT 7 -1.4415764E-05 0 0 1 0 0 ""
  XDAT 8 2.0048636E-06 0 0 1 0 0 ""
  XDAT 9 8.5395147E-08 0 0 1 0 0 ""
  XDAT 10 -2.7593537E-08 0 0 1 0 0 ""
  XDAT 11 -1.5824477E-09 0 0 1 0 0 ""
  XDAT 12 9.7508883E-11 0 0 1 0 0 ""
  XDAT 13 2.7671017E-11 0 0 1 0 0 ""
  XDAT 14 3.2754768E-12 0 0 1 0 0 ""
  XDAT 15 4.6387406E-14 0 0 1 0 0 ""
  XDAT 16 -3.6779862E-14 0 0 1 0 0 ""
  XDAT 17 -6.2819774E-15 0 0 1 0 0 ""
  XDAT 18 -5.7196441E-16 0 0 1 0 0 ""
  XDAT 19 -2.6177942E-17 0 0 1 0 0 ""
  XDAT 20 9.2927985E-18 0 0 1 0 0 ""
  XDAT 21 4.4727344E-18 0 0 1 0 0 ""
  XDAT 22 -4.2439516E-19 0 0 1 0 0 ""
  DISZ  1.3
  CONI  0
  DIAM  8.93 1 0 0 1 ""
  POPS 0 0 0 0 0 0 0 0 1 1 1 1 0 0 0 0
SURF 16
  STOP
  TYPE STANDARD
  CURV 0 0 0 0 0
  HIDE 0 0 0 0 0 0 0 0 0 0
  MIRR 2 0
  DISZ  2.8
  DIAM  6.209 1 0 0 1 ""
  POPS 0 0 0 0 0 0 0 0 1 1 1 1 0 0 0 0
SURF 17
  TYPE STANDARD
  CURV 0.0389014237921108 0 0 0 0
  HIDE 0 0 0 0 0 0 0 0 0 0
  MIRR 2 0
  DISZ  4.1
  GLAS  ___BLANK 1 0 1.49700 81.54 0 0 0 0 0 0
  DIAM  8.25 1 0 0 1 ""
  POPS 0 0 0 0 0 0 0 0 1 1 1 1 0 0 0 0
SURF 18
  TYPE STANDARD
  CURV -0.0389014237921108 0 0 0 0
  HIDE 0 0 0 0 0 0 0 0 0 0
  MIRR 2 0
  DISZ  0.7
  GLAS  ___BLANK 1 0 1.92286 20.88 0 0 0 0 0 0
  DIAM  8.25 1 0 0 1 ""
  POPS 0 0 0 0 0 0 0 0 1 1 1 1 0 0 0 0
SURF 19
  TYPE STANDARD
  CURV -0.00536303884797635 0 0 0 0
  HIDE 0 0 0 0 0 0 0 0 0 0
  MIRR 2 0
  DISZ  2
  DIAM  9.14 1 0 0 1 ""
  POPS 0 0 0 0 0 0 0 0 1 1 1 1 0 0 0 0
SURF 20
  TYPE STANDARD
  CURV -0.0216790699852409 0 0 0 0
  HIDE 0 0 0 0 0 0 0 0 0 0
  MIRR 2 0
  DISZ  2.11
  GLAS  ___BLANK 1 0 2.00069 25.46 0 0 0 0 0 0
  DIAM  9.68 1 0 0 1 ""
  POPS 0 0 0 0 0 0 0 0 1 1 1 1 0 0 0 0
SURF 21
  TYPE STANDARD
  CURV -0.0500876533934385 0 0 0 0
  HIDE 0 0 0 0 0 0 0 0 0 0
  MIRR 2 0
  DISZ  1
  GLAS  ___BLANK 1 0 1.67300 38.15 0 0 0 0 0 0
  DIAM  9.68 1 0 0 1 ""
  POPS 0 0 0 0 0 0 0 0 1 1 1 1 0 0 0 0
SURF 22
  TYPE STANDARD
  CURV 0.0257390385799875 0 0 0 0
  HIDE 0 0 0 0 0 0 0 0 0 0
  MIRR 2 0
  DISZ  4
  DIAM  9.68 1 0 0 1 ""
  POPS 0 0 0 0 0 0 0 0 1 1 1 1 0 0 0 0
SURF 23
  TYPE XOSPHERE
  CURV 0.0402942284561871 0 0 0 0
  HIDE 0 0 0 0 0 0 0 0 0 0
  MIRR 2 0
  XDAT 1 20 0 0 1 0 0 ""
  XDAT 2 1 0 0 1 0 0 ""
  XDAT 3 0 0 0 1 0 0 ""
  XDAT 4 0 0 0 1 0 0 ""
  XDAT 5 -3.5430903E-05 0 0 1 0 0 ""
  XDAT 6 -3.0748443E-06 0 0 1 0 0 ""
  XDAT 7 -7.9498260E-06 0 0 1 0 0 ""
  XDAT 8 5.3530373E-07 0 0 1 0 0 ""
  XDAT 9 9.9676262E-08 0 0 1 0 0 ""
  XDAT 10 -6.5293589E-09 0 0 1 0 0 ""
  XDAT 11 -1.1113069E-09 0 0 1 0 0 ""
  XDAT 12 -2.8251173E-10 0 0 1 0 0 ""
  XDAT 13 1.2613768E-11 0 0 1 0 0 ""
  XDAT 14 4.5611890E-12 0 0 1 0 0 ""
  XDAT 15 4.4996069E-13 0 0 1 0 0 ""
  XDAT 16 1.7771658E-15 0 0 1 0 0 ""
  XDAT 17 -4.9618221E-15 0 0 1 0 0 ""
  XDAT 18 -8.9926075E-16 0 0 1 0 0 ""
  XDAT 19 -2.2844918E-16 0 0 1 0 0 ""
  XDAT 20 -3.1031128E-17 0 0 1 0 0 ""
  XDAT 21 1.6555816E-17 0 0 1 0 0 ""
  XDAT 22 -1.0768819E-18 0 0 1 0 0 ""
  DISZ  5
  CONI  0
  GLAS  ___BLANK 1 0 1.66630 55.16 0 0 0 0 0 0
  DIAM  8.15 1 0 0 1 ""
  POPS 0 0 0 0 0 0 0 0 1 1 1 1 0 0 0 0
SURF 24
  TYPE XOSPHERE
  CURV -0.0317367928130128 0 0 0 0
  HIDE 0 0 0 0 0 0 0 0 0 0
  MIRR 2 0
  XDAT 1 20 0 0 1 0 0 ""
  XDAT 2 1 0 0 1 0 0 ""
  XDAT 3 0 0 0 1 0 0 ""
  XDAT 4 0 0 0 1 0 0 ""
  XDAT 5 -3.8587863E-05 0 0 1 0 0 ""
  XDAT 6 3.4605942E-05 0 0 1 0 0 ""
  XDAT 7 -2.2352878E-06 0 0 1 0 0 ""
  XDAT 8 -1.5966209E-07 0 0 1 0 0 ""
  XDAT 9 2.7115440E-08 0 0 1 0 0 ""
  XDAT 10 3.9965050E-09 0 0 1 0 0 ""
  XDAT 11 -1.1028928E-09 0 0 1 0 0 ""
  XDAT 12 1.3092306E-10 0 0 1 0 0 ""
  XDAT 13 -4.5416954E-12 0 0 1 0 0 ""
  XDAT 14 -1.9602695E-12 0 0 1 0 0 ""
  XDAT 15 -1.1855210E-13 0 0 1 0 0 ""
  XDAT 16 1.2366695E-14 0 0 1 0 0 ""
  XDAT 17 3.9780095E-15 0 0 1 0 0 ""
  XDAT 18 2.7200359E-16 0 0 1 0 0 ""
  XDAT 19 -1.6159957E-17 0 0 1 0 0 ""
  XDAT 20 -1.8700513E-18 0 0 1 0 0 ""
  XDAT 21 -1.5981389E-18 0 0 1 0 0 ""
  XDAT 22 1.4631615E-19 0 0 1 0 0 ""
  DISZ  4
  CONI  0
  DIAM  8.15 1 0 0 1 ""
  POPS 0 0 0 0 0 0 0 0 1 1 1 1 0 0 0 0
SURF 25
  TYPE STANDARD
  CURV -0.0413038979727634 0 0 0 0
  HIDE 0 0 0 0 0 0 0 0 0 0
  MIRR 2 0
  DISZ  1.51
  GLAS  ___BLANK 1 0 1.88300 40.76 0 0 0 0 0 0
  DIAM  9.95 1 0 0 1 ""
  POPS 0 0 0 0 0 0 0 0 1 1 1 1 0 0 0 0
SURF 26
  TYPE STANDARD
  CURV 0.0198424509395401 0 0 0 0
  HIDE 0 0 0 0 0 0 0 0 0 0
  MIRR 2 0
  DISZ  2.99
  GLAS  ___BLANK 1 0 1.72825 28.46 0 0 0 0 0 0
  DIAM  9.95 1 0 0 1 ""
  POPS 0 0 0 0 0 0 0 0 1 1 1 1 0 0 0 0
SURF 27
  TYPE STANDARD
  CURV -0.0103749668649496 0 0 0 0
  HIDE 0 0 0 0 0 0 0 0 0 0
  MIRR 2 0
  DISZ  2
  DIAM  9.95 1 0 0 1 ""
  POPS 0 0 0 0 0 0 0 0 1 1 1 1 0 0 0 0
SURF 28
  TYPE STANDARD
  CURV -0.0100033731374219 0 0 0 0
  HIDE 0 0 0 0 0 0 0 0 0 0
  MIRR 2 0
  DISZ  2.57
  GLAS  ___BLANK 1 0 1.48749 70.23 0 0 0 0 0 0
  DIAM  14.1 1 0 0 1 ""
  POPS 0 0 0 0 0 0 0 0 1 1 1 1 0 0 0 0
SURF 29
  TYPE STANDARD
  CURV -0.0204858632179399 0 0 0 0
  HIDE 0 0 0 0 0 0 0 0 0 0
  MIRR 2 0
  DISZ  2
  DIAM  14.1 1 0 0 1 ""
  POPS 0 0 0 0 0 0 0 0 1 1 1 1 0 0 0 0
SURF 30
  TYPE STANDARD
  CURV 0 0 0 0 0
  HIDE 0 0 0 0 0 0 0 0 0 0
  MIRR 2 0
  DISZ  2.85
  GLAS  ___BLANK 1 0 1.51680 64.20 0 0 0 0 0 0
  DIAM  13.62 1 0 0 1 ""
  POPS 0 0 0 0 0 0 0 0 1 1 1 1 0 0 0 0
SURF 31
  TYPE STANDARD
  CURV 0 0 0 0 0
  HIDE 0 0 0 0 0 0 0 0 0 0
  MIRR 2 0
  DISZ  16.08
  DIAM  13.62 1 0 0 1 ""
  POPS 0 0 0 0 0 0 0 0 1 1 1 1 0 0 0 0
SURF 32
  TYPE STANDARD
  CURV 0.0 0 0 0 0 ""
  HIDE 0 0 0 0 0 0 0 0 0 0
  MIRR 2 0
  DISZ 0
  DIAM 14.65 1 0 0 1 ""
  POPS 0 0 0 0 0 0 0 0 1 1 1 1 0 0 0 0
TOL TOFF   0   0              0              0   0 0 0 0
MNUM 3 1
SDIA   16   1 6.209 0 0 0 1 1 1 0 0
SDIA   16   2 6.962 0 0 0 1 1 1 0 0
SDIA   16   3 7.741 0 0 0 1 1 1 0 0
THIC   5   1 0.698 0 0 0 1 1 1 0 0
THIC   5   2 18.892 0 0 0 1 1 1 0 0
THIC   5   3 35.203 0 0 0 1 1 1 0 0
THIC   11   1 3.091 0 0 0 1 1 1 0 0
THIC   11   2 4.902 0 0 0 1 1 1 0 0
THIC   11   3 8.085 0 0 0 1 1 1 0 0
THIC   13   1 20.999 0 0 0 1 1 1 0 0
THIC   13   2 9.091 0 0 0 1 1 1 0 0
THIC   13   3 0.956 0 0 0 1 1 1 0 0
THIC   22   1 4.000 0 0 0 1 1 1 0 0
THIC   22   2 2.524 0 0 0 1 1 1 0 0
THIC   22   3 1.922 0 0 0 1 1 1 0 0
THIC   27   1 2.000 0 0 0 1 1 1 0 0
THIC   27   2 22.476 0 0 0 1 1 1 0 0
THIC   27   3 44.781 0 0 0 1 1 1 0 0
