VERS 161019 507 33785
MODE SEQ
NAME US 2017/0351051 Example 1 (Fujifilm Fujinon XF23mm F2 R WR)
NOTE 0 Prepared and converted by Bill Claff.
PFIL 0 0 0
LANG 0
UNIT MM X W X CM MR CPMM
FNUM 2.06 0
ENVD 20 1 0
GFAC 0 0
RAIM 0 2 1 1 0 1 0 0 0
SDMA 0 1 0
FTYP 3 0 3 3 0 0 0
ROPD 2
HYPR 0
PICB 1
XFLN 0 0 0 0 0 0 0 0 0 0 0 0
YFLN 0 9.94 14.2 0 0 0 0 0 0 0 0 0 0
FWGN 1 1 1 1 1 1 1 1 1 1 1 1
VDXN 0 0 0 0 0 0 0 0 0 0 0 0
VDYN 0 0 0 0 0 0 0 0 0 0 0 0
VCXN 0 0 0 0 0 0 0 0 0 0 0 0
VCYN 0 0 0 0 0 0 0 0 0 0 0 0
VANN 0 0 0 0 0 0 0 0 0 0 0 0
WAVM 1 0.4861327 1
WAVM 2 0.5875618 1
WAVM 3 0.6562725 1
WAVM 4 0.550 1
WAVM 5 0.550 1
WAVM 6 0.550 1
WAVM 7 0.550 1
WAVM 8 0.550 1
WAVM 9 0.550 1
WAVM 10 0.550 1
WAVM 11 0.550 1
WAVM 12 0.550 1
WAVM 13 0.550 1
WAVM 14 0.550 1
WAVM 15 0.550 1
WAVM 16 0.550 1
WAVM 17 0.550 1
WAVM 18 0.550 1
WAVM 19 0.550 1
WAVM 20 0.550 1
WAVM 21 0.550 1
WAVM 22 0.550 1
WAVM 23 0.550 1
WAVM 24 0.550 1
PWAV 2
POLS 1 0 1 0 0 1 0
GSTD 0 100 100 100 100 100 100 0 1 1 0 0 1 1 1 1 1 1
NSCD 100 500 0 1.0E-3 5 1.0E-6 0 0 0 0 0 0 1000000 0 2
SURF 0
  TYPE STANDARD
  CURV 0.0 0 0 0 0 ""
  HIDE 0 0 0 0 0 0 0 0 0 0
  MIRR 2 0
  DISZ INFINITY
  DIAM 0 1 0 0 1 ""
  POPS 0 0 0 0 0 0 0 0 1 1 1 1 0 0 0 0
SURF 1
  TYPE STANDARD
  CURV 0.019045446052917 0 0 0 0
  HIDE 0 0 0 0 0 0 0 0 0 0
  MIRR 2 0
  DISZ  1.09
  GLAS  ___BLANK 1 0 1.51633 64.14 0 0 0 0 0 0
  DIAM  13.025 1 0 0 1 ""
  POPS 0 0 0 0 0 0 0 0 1 1 1 1 0 0 0 0
SURF 2
  TYPE STANDARD
  CURV 0.0765930199249082 0 0 0 0
  HIDE 0 0 0 0 0 0 0 0 0 0
  MIRR 2 0
  DISZ  10.74
  DIAM  10.085 1 0 0 1 ""
  POPS 0 0 0 0 0 0 0 0 1 1 1 1 0 0 0 0
SURF 3
  TYPE STANDARD
  CURV 0.0309257340145654 0 0 0 0
  HIDE 0 0 0 0 0 0 0 0 0 0
  MIRR 2 0
  DISZ  5.21
  GLAS  ___BLANK 1 0 1.88300 40.76 0 0 0 0 0 0
  DIAM  9.23 1 0 0 1 ""
  POPS 0 0 0 0 0 0 0 0 1 1 1 1 0 0 0 0
SURF 4
  TYPE STANDARD
  CURV -0.0577367205542725 0 0 0 0
  HIDE 0 0 0 0 0 0 0 0 0 0
  MIRR 2 0
  DISZ  0.89
  GLAS  ___BLANK 1 0 1.68893 31.07 0 0 0 0 0 0
  DIAM  9.23 1 0 0 1 ""
  POPS 0 0 0 0 0 0 0 0 1 1 1 1 0 0 0 0
SURF 5
  TYPE STANDARD
  CURV 0 0 0 0 0
  HIDE 0 0 0 0 0 0 0 0 0 0
  MIRR 2 0
  DISZ  3.73
  DIAM  9.23 1 0 0 1 ""
  POPS 0 0 0 0 0 0 0 0 1 1 1 1 0 0 0 0
SURF 6
  STOP
  TYPE STANDARD
  CURV 0 0 0 0 0
  HIDE 0 0 0 0 0 0 0 0 0 0
  MIRR 2 0
  DISZ  3.77
  DIAM  6.7 1 0 0 1 ""
  POPS 0 0 0 0 0 0 0 0 1 1 1 1 0 0 0 0
SURF 7
  TYPE XOSPHERE
  CURV -0.0271095132161588 0 0 0 0
  HIDE 0 0 0 0 0 0 0 0 0 0
  MIRR 2 0
  XDAT 1 20 0 0 1 0 0 ""
  XDAT 2 1 0 0 1 0 0 ""
  XDAT 3 0 0 0 1 0 0 ""
  XDAT 4 0 0 0 1 0 0 ""
  XDAT 5 1.5073532E-04 0 0 1 0 0 ""
  XDAT 6 -1.1467085E-04 0 0 1 0 0 ""
  XDAT 7 -2.5158022E-05 0 0 1 0 0 ""
  XDAT 8 2.7115028E-05 0 0 1 0 0 ""
  XDAT 9 -2.6530657E-06 0 0 1 0 0 ""
  XDAT 10 -2.7494956E-06 0 0 1 0 0 ""
  XDAT 11 6.4552685E-07 0 0 1 0 0 ""
  XDAT 12 1.1322721E-07 0 0 1 0 0 ""
  XDAT 13 -4.7857408E-08 0 0 1 0 0 ""
  XDAT 14 -1.0785306E-09 0 0 1 0 0 ""
  XDAT 15 1.8203001E-09 0 0 1 0 0 ""
  XDAT 16 -7.5189036E-11 0 0 1 0 0 ""
  XDAT 17 -3.8314367E-11 0 0 1 0 0 ""
  XDAT 18 2.9096315E-12 0 0 1 0 0 ""
  XDAT 19 4.2481861E-13 0 0 1 0 0 ""
  XDAT 20 -4.1411358E-14 0 0 1 0 0 ""
  XDAT 21 -1.9323433E-15 0 0 1 0 0 ""
  XDAT 22 2.1635158E-16 0 0 1 0 0 ""
  DISZ  1.3
  CONI  0
  GLAS  ___BLANK 1 0 1.84887 40.12 0 0 0 0 0 0
  DIAM  6.53 1 0 0 1 ""
  POPS 0 0 0 0 0 0 0 0 1 1 1 1 0 0 0 0
SURF 8
  TYPE XOSPHERE
  CURV 0.00827754064003434 0 0 0 0
  HIDE 0 0 0 0 0 0 0 0 0 0
  MIRR 2 0
  XDAT 1 20 0 0 1 0 0 ""
  XDAT 2 1 0 0 1 0 0 ""
  XDAT 3 0 0 0 1 0 0 ""
  XDAT 4 0 0 0 1 0 0 ""
  XDAT 5 2.5439114E-04 0 0 1 0 0 ""
  XDAT 6 -9.1808037E-05 0 0 1 0 0 ""
  XDAT 7 7.5153059E-06 0 0 1 0 0 ""
  XDAT 8 3.4413909E-05 0 0 1 0 0 ""
  XDAT 9 -9.3493840E-06 0 0 1 0 0 ""
  XDAT 10 -2.5271341E-06 0 0 1 0 0 ""
  XDAT 11 1.2301067E-06 0 0 1 0 0 ""
  XDAT 12 5.2583751E-08 0 0 1 0 0 ""
  XDAT 13 -7.6395204E-08 0 0 1 0 0 ""
  XDAT 14 2.8925500E-09 0 0 1 0 0 ""
  XDAT 15 2.6477596E-09 0 0 1 0 0 ""
  XDAT 16 -2.0845725E-10 0 0 1 0 0 ""
  XDAT 17 -5.2489457E-11 0 0 1 0 0 ""
  XDAT 18 5.4161891E-12 0 0 1 0 0 ""
  XDAT 19 5.5711588E-13 0 0 1 0 0 ""
  XDAT 20 -6.6500124E-14 0 0 1 0 0 ""
  XDAT 21 -2.4586981E-15 0 0 1 0 0 ""
  XDAT 22 3.2167677E-16 0 0 1 0 0 ""
  DISZ  0.42
  CONI  0
  DIAM  7.215 1 0 0 1 ""
  POPS 0 0 0 0 0 0 0 0 1 1 1 1 0 0 0 0
SURF 9
  TYPE STANDARD
  CURV 0 0 0 0 0
  HIDE 0 0 0 0 0 0 0 0 0 0
  MIRR 2 0
  DISZ  4.56
  GLAS  ___BLANK 1 0 1.81600 46.62 0 0 0 0 0 0
  DIAM  7.83 1 0 0 1 ""
  POPS 0 0 0 0 0 0 0 0 1 1 1 1 0 0 0 0
SURF 10
  TYPE STANDARD
  CURV -0.0911161731207289 0 0 0 0
  HIDE 0 0 0 0 0 0 0 0 0 0
  MIRR 2 0
  DISZ  0.91
  GLAS  ___BLANK 1 0 1.68893 31.07 0 0 0 0 0 0
  DIAM  7.83 1 0 0 1 ""
  POPS 0 0 0 0 0 0 0 0 1 1 1 1 0 0 0 0
SURF 11
  TYPE STANDARD
  CURV 0.00223823805899996 0 0 0 0
  HIDE 0 0 0 0 0 0 0 0 0 0
  MIRR 2 0
  DISZ  3.79
  GLAS  ___BLANK 1 0 1.88300 40.76 0 0 0 0 0 0
  DIAM  8.775 1 0 0 1 ""
  POPS 0 0 0 0 0 0 0 0 1 1 1 1 0 0 0 0
SURF 12
  TYPE STANDARD
  CURV -0.0644803528364907 0 0 0 0
  HIDE 0 0 0 0 0 0 0 0 0 0
  MIRR 2 0
  DISZ  2.312
  DIAM  8.775 1 0 0 1 ""
  POPS 0 0 0 0 0 0 0 0 1 1 1 1 0 0 0 0
SURF 13
  TYPE XOSPHERE
  CURV -0.0308394973778717 0 0 0 0
  HIDE 0 0 0 0 0 0 0 0 0 0
  MIRR 2 0
  XDAT 1 20 0 0 1 0 0 ""
  XDAT 2 1 0 0 1 0 0 ""
  XDAT 3 0 0 0 1 0 0 ""
  XDAT 4 0 0 0 1 0 0 ""
  XDAT 5 1.1475882E-04 0 0 1 0 0 ""
  XDAT 6 9.4330279E-05 0 0 1 0 0 ""
  XDAT 7 4.0970098E-06 0 0 1 0 0 ""
  XDAT 8 -1.6458052E-07 0 0 1 0 0 ""
  XDAT 9 -1.3961895E-08 0 0 1 0 0 ""
  XDAT 10 -8.0154932E-10 0 0 1 0 0 ""
  XDAT 11 1.6071861E-10 0 0 1 0 0 ""
  XDAT 12 3.6880972E-11 0 0 1 0 0 ""
  XDAT 13 4.3306258E-12 0 0 1 0 0 ""
  XDAT 14 2.2470515E-13 0 0 1 0 0 ""
  XDAT 15 -3.4824709E-14 0 0 1 0 0 ""
  XDAT 16 -1.7660620E-14 0 0 1 0 0 ""
  XDAT 17 -1.0771212E-15 0 0 1 0 0 ""
  XDAT 18 -1.8639544E-16 0 0 1 0 0 ""
  XDAT 19 2.8875371E-17 0 0 1 0 0 ""
  XDAT 20 4.7797588E-18 0 0 1 0 0 ""
  XDAT 21 5.1689957E-19 0 0 1 0 0 ""
  XDAT 22 -9.3666797E-20 0 0 1 0 0 ""
  DISZ  1.75
  CONI  0
  GLAS  ___BLANK 1 0 1.80312 40.54 0 0 0 0 0 0
  DIAM  9.045 1 0 0 1 ""
  POPS 0 0 0 0 0 0 0 0 1 1 1 1 0 0 0 0
SURF 14
  TYPE XOSPHERE
  CURV 0.000419277971802852 0 0 0 0
  HIDE 0 0 0 0 0 0 0 0 0 0
  MIRR 2 0
  XDAT 1 20 0 0 1 0 0 ""
  XDAT 2 1 0 0 1 0 0 ""
  XDAT 3 0 0 0 1 0 0 ""
  XDAT 4 0 0 0 1 0 0 ""
  XDAT 5 2.2255579E-05 0 0 1 0 0 ""
  XDAT 6 1.4188125E-04 0 0 1 0 0 ""
  XDAT 7 -5.2116815E-08 0 0 1 0 0 ""
  XDAT 8 -3.3414964E-07 0 0 1 0 0 ""
  XDAT 9 -2.9038350E-09 0 0 1 0 0 ""
  XDAT 10 2.9999049E-09 0 0 1 0 0 ""
  XDAT 11 4.5010731E-10 0 0 1 0 0 ""
  XDAT 12 3.7798784E-11 0 0 1 0 0 ""
  XDAT 13 5.3163730E-12 0 0 1 0 0 ""
  XDAT 14 -9.2257398E-13 0 0 1 0 0 ""
  XDAT 15 -2.5562964E-13 0 0 1 0 0 ""
  XDAT 16 1.1944812E-14 0 0 1 0 0 ""
  XDAT 17 -2.0402486E-15 0 0 1 0 0 ""
  XDAT 18 -1.4848757E-16 0 0 1 0 0 ""
  XDAT 19 2.8123105E-17 0 0 1 0 0 ""
  XDAT 20 1.1218178E-17 0 0 1 0 0 ""
  XDAT 21 1.8795160E-19 0 0 1 0 0 ""
  XDAT 22 -1.2793914E-19 0 0 1 0 0 ""
  DISZ  5.764
  CONI  0
  DIAM  8.14 1 0 0 1 ""
  POPS 0 0 0 0 0 0 0 0 1 1 1 1 0 0 0 0
SURF 15
  TYPE STANDARD
  CURV -0.00487203027830401 0 0 0 0
  HIDE 0 0 0 0 0 0 0 0 0 0
  MIRR 2 0
  DISZ  1.1
  GLAS  ___BLANK 1 0 1.78470 26.29 0 0 0 0 0 0
  DIAM  11.565 1 0 0 1 ""
  POPS 0 0 0 0 0 0 0 0 1 1 1 1 0 0 0 0
SURF 16
  TYPE STANDARD
  CURV 0.0295945546019532 0 0 0 0
  HIDE 0 0 0 0 0 0 0 0 0 0
  MIRR 2 0
  DISZ  3.98
  GLAS  ___BLANK 1 0 1.80400 46.58 0 0 0 0 0 0
  DIAM  11.565 1 0 0 1 ""
  POPS 0 0 0 0 0 0 0 0 1 1 1 1 0 0 0 0
SURF 17
  TYPE STANDARD
  CURV -0.0103420840809367 0 0 0 0
  HIDE 0 0 0 0 0 0 0 0 0 0
  MIRR 2 0
  DISZ  10.862
  DIAM  11.565 1 0 0 1 ""
  POPS 0 0 0 0 0 0 0 0 1 1 1 1 0 0 0 0
SURF 18
  TYPE STANDARD
  CURV 0 0 0 0 0
  HIDE 0 0 0 0 0 0 0 0 0 0
  MIRR 2 0
  DISZ  2.85
  GLAS  ___BLANK 1 0 1.51680 64.20 0 0 0 0 0 0
  DIAM  13.985 1 0 0 1 ""
  POPS 0 0 0 0 0 0 0 0 1 1 1 1 0 0 0 0
SURF 19
  TYPE STANDARD
  CURV 0 0 0 0 0
  HIDE 0 0 0 0 0 0 0 0 0 0
  MIRR 2 0
  DISZ  1
  DIAM  13.985 1 0 0 1 ""
  POPS 0 0 0 0 0 0 0 0 1 1 1 1 0 0 0 0
SURF 20
  TYPE STANDARD
  CURV 0.0 0 0 0 0 ""
  HIDE 0 0 0 0 0 0 0 0 0 0
  MIRR 2 0
  DISZ 0
  DIAM 14.2 1 0 0 1 ""
  POPS 0 0 0 0 0 0 0 0 1 1 1 1 0 0 0 0
TOL TOFF   0   0              0              0   0 0 0 0
MNUM 2 1
THIC   0   1 1.00E+10 0 0 0 1 1 1 0 0
THIC   0   2 535.24 0 0 0 1 1 1 0 0
THIC   12   1 2.312 0 0 0 1 1 1 0 0
THIC   12   2 2.984 0 0 0 1 1 1 0 0
THIC   14   1 5.764 0 0 0 1 1 1 0 0
THIC   14   2 5.092 0 0 0 1 1 1 0 0
