VERS 161019 507 33785
MODE SEQ
NAME US 2014/0240851 Example 1 (Fujifilm Fujinon XF18mm F2 R)
NOTE 0 Prepared and converted by Bill Claff.
PFIL 0 0 0
LANG 0
UNIT MM X W X CM MR CPMM
FNUM 2.06 0
ENVD 20 1 0
GFAC 0 0
RAIM 0 2 1 1 0 1 0 0 0
SDMA 0 1 0
FTYP 3 0 3 3 0 0 0
ROPD 2
HYPR 0
PICB 1
XFLN 0 0 0 0 0 0 0 0 0 0 0 0
YFLN 0 9.94 14.2 0 0 0 0 0 0 0 0 0 0
FWGN 1 1 1 1 1 1 1 1 1 1 1 1
VDXN 0 0 0 0 0 0 0 0 0 0 0 0
VDYN 0 0 0 0 0 0 0 0 0 0 0 0
VCXN 0 0 0 0 0 0 0 0 0 0 0 0
VCYN 0 0 0 0 0 0 0 0 0 0 0 0
VANN 0 0 0 0 0 0 0 0 0 0 0 0
WAVM 1 0.4861327 1
WAVM 2 0.5875618 1
WAVM 3 0.6562725 1
WAVM 4 0.550 1
WAVM 5 0.550 1
WAVM 6 0.550 1
WAVM 7 0.550 1
WAVM 8 0.550 1
WAVM 9 0.550 1
WAVM 10 0.550 1
WAVM 11 0.550 1
WAVM 12 0.550 1
WAVM 13 0.550 1
WAVM 14 0.550 1
WAVM 15 0.550 1
WAVM 16 0.550 1
WAVM 17 0.550 1
WAVM 18 0.550 1
WAVM 19 0.550 1
WAVM 20 0.550 1
WAVM 21 0.550 1
WAVM 22 0.550 1
WAVM 23 0.550 1
WAVM 24 0.550 1
PWAV 2
POLS 1 0 1 0 0 1 0
GSTD 0 100 100 100 100 100 100 0 1 1 0 0 1 1 1 1 1 1
NSCD 100 500 0 1.0E-3 5 1.0E-6 0 0 0 0 0 0 1000000 0 2
SURF 0
  TYPE STANDARD
  CURV 0.0 0 0 0 0 ""
  HIDE 0 0 0 0 0 0 0 0 0 0
  MIRR 2 0
  DISZ INFINITY
  DIAM 0 1 0 0 1 ""
  POPS 0 0 0 0 0 0 0 0 1 1 1 1 0 0 0 0
SURF 1
  TYPE STANDARD
  CURV -0.00782925337891003 0 0 0 0
  HIDE 0 0 0 0 0 0 0 0 0 0
  MIRR 2 0
  DISZ  1
  GLAS  ___BLANK 1 0 1.517417 52.43 0 0 0 0 0 0
  DIAM  8.83 1 0 0 1 ""
  POPS 0 0 0 0 0 0 0 0 1 1 1 1 0 0 0 0
SURF 2
  TYPE STANDARD
  CURV 0.0963818262428436 0 0 0 0
  HIDE 0 0 0 0 0 0 0 0 0 0
  MIRR 2 0
  DISZ  3.75
  DIAM  6.85 1 0 0 1 ""
  POPS 0 0 0 0 0 0 0 0 1 1 1 1 0 0 0 0
SURF 3
  TYPE STANDARD
  CURV 0.0447822017617318 0 0 0 0
  HIDE 0 0 0 0 0 0 0 0 0 0
  MIRR 2 0
  DISZ  2.28
  GLAS  ___BLANK 1 0 1.834000 37.16 0 0 0 0 0 0
  DIAM  6.87 1 0 0 1 ""
  POPS 0 0 0 0 0 0 0 0 1 1 1 1 0 0 0 0
SURF 4
  TYPE STANDARD
  CURV 0 0 0 0 0
  HIDE 0 0 0 0 0 0 0 0 0 0
  MIRR 2 0
  DISZ  2.14
  DIAM  6.87 1 0 0 1 ""
  POPS 0 0 0 0 0 0 0 0 1 1 1 1 0 0 0 0
SURF 5
  STOP
  TYPE STANDARD
  CURV 0 0 0 0 0
  HIDE 0 0 0 0 0 0 0 0 0 0
  MIRR 2 0
  DISZ  3.62
  DIAM  5.7605 1 0 0 1 ""
  POPS 0 0 0 0 0 0 0 0 1 1 1 1 0 0 0 0
SURF 6
  TYPE STANDARD
  CURV 0.0298544000907574 0 0 0 0
  HIDE 0 0 0 0 0 0 0 0 0 0
  MIRR 2 0
  DISZ  0.86
  GLAS  ___BLANK 1 0 1.647689 33.79 0 0 0 0 0 0
  DIAM  7.4 1 0 0 1 ""
  POPS 0 0 0 0 0 0 0 0 1 1 1 1 0 0 0 0
SURF 7
  TYPE STANDARD
  CURV 0.102082482645978 0 0 0 0
  HIDE 0 0 0 0 0 0 0 0 0 0
  MIRR 2 0
  DISZ  5.42
  GLAS  ___BLANK 1 0 1.804000 46.57 0 0 0 0 0 0
  DIAM  6.65 1 0 0 1 ""
  POPS 0 0 0 0 0 0 0 0 1 1 1 1 0 0 0 0
SURF 8
  TYPE STANDARD
  CURV -0.0358587452307869 0 0 0 0
  HIDE 0 0 0 0 0 0 0 0 0 0
  MIRR 2 0
  DISZ  0.47
  DIAM  6.62 1 0 0 1 ""
  POPS 0 0 0 0 0 0 0 0 1 1 1 1 0 0 0 0
SURF 9
  TYPE XOSPHERE
  CURV 0.0341880341880342 0 0 0 0
  HIDE 0 0 0 0 0 0 0 0 0 0
  MIRR 2 0
  XDAT 1 16 0 0 1 0 0 ""
  XDAT 2 1 0 0 1 0 0 ""
  XDAT 3 0 0 0 1 0 0 ""
  XDAT 4 0 0 0 1 0 0 ""
  XDAT 5 -2.53595966E-05 0 0 1 0 0 ""
  XDAT 6 5.91514146E-05 0 0 1 0 0 ""
  XDAT 7 -4.93656786E-05 0 0 1 0 0 ""
  XDAT 8 4.75153450E-06 0 0 1 0 0 ""
  XDAT 9 7.34091959E-07 0 0 1 0 0 ""
  XDAT 10 2.19092014E-07 0 0 1 0 0 ""
  XDAT 11 -1.01933177E-07 0 0 1 0 0 ""
  XDAT 12 4.87556962E-09 0 0 1 0 0 ""
  XDAT 13 6.30048753E-10 0 0 1 0 0 ""
  XDAT 14 9.55609385E-11 0 0 1 0 0 ""
  XDAT 15 -5.32097670E-12 0 0 1 0 0 ""
  XDAT 16 -6.34524093E-12 0 0 1 0 0 ""
  XDAT 17 7.81178659E-13 0 0 1 0 0 ""
  XDAT 18 -1.86432156E-14 0 0 1 0 0 ""
  DISZ  2.4
  CONI  4.78304655
  GLAS  ___BLANK 1 0 1.806100 40.73 0 0 0 0 0 0
  DIAM  7.18 1 0 0 1 ""
  POPS 0 0 0 0 0 0 0 0 1 1 1 1 0 0 0 0
SURF 10
  TYPE XOSPHERE
  CURV -0.00764257218409428 0 0 0 0
  HIDE 0 0 0 0 0 0 0 0 0 0
  MIRR 2 0
  XDAT 1 16 0 0 1 0 0 ""
  XDAT 2 1 0 0 1 0 0 ""
  XDAT 3 0 0 0 1 0 0 ""
  XDAT 4 0 0 0 1 0 0 ""
  XDAT 5 3.99685295E-04 0 0 1 0 0 ""
  XDAT 6 -2.61954183E-04 0 0 1 0 0 ""
  XDAT 7 8.54474233E-06 0 0 1 0 0 ""
  XDAT 8 1.35531333E-05 0 0 1 0 0 ""
  XDAT 9 -1.33495869E-06 0 0 1 0 0 ""
  XDAT 10 -7.65249439E-08 0 0 1 0 0 ""
  XDAT 11 -2.67058977E-08 0 0 1 0 0 ""
  XDAT 12 7.34713251E-09 0 0 1 0 0 ""
  XDAT 13 2.29305258E-10 0 0 1 0 0 ""
  XDAT 14 -4.25150935E-11 0 0 1 0 0 ""
  XDAT 15 -2.16472161E-12 0 0 1 0 0 ""
  XDAT 16 -4.08200802E-12 0 0 1 0 0 ""
  XDAT 17 4.73756578E-13 0 0 1 0 0 ""
  XDAT 18 4.03970404E-15 0 0 1 0 0 ""
  DISZ  0.4
  CONI  -1497.832819
  DIAM  7.18 1 0 0 1 ""
  POPS 0 0 0 0 0 0 0 0 1 1 1 1 0 0 0 0
SURF 11
  TYPE STANDARD
  CURV 0 0 0 0 0
  HIDE 0 0 0 0 0 0 0 0 0 0
  MIRR 2 0
  DISZ  0.8
  GLAS  ___BLANK 1 0 1.922860 18.90 0 0 0 0 0 0
  DIAM  7.43 1 0 0 1 ""
  POPS 0 0 0 0 0 0 0 0 1 1 1 1 0 0 0 0
SURF 12
  TYPE STANDARD
  CURV 0.0600279730354345 0 0 0 0
  HIDE 0 0 0 0 0 0 0 0 0 0
  MIRR 2 0
  DISZ  3.42
  DIAM  6.235 1 0 0 1 ""
  POPS 0 0 0 0 0 0 0 0 1 1 1 1 0 0 0 0
SURF 13
  TYPE XOSPHERE
  CURV -0.138661637871267 0 0 0 0
  HIDE 0 0 0 0 0 0 0 0 0 0
  MIRR 2 0
  XDAT 1 12 0 0 1 0 0 ""
  XDAT 2 1 0 0 1 0 0 ""
  XDAT 3 0 0 0 1 0 0 ""
  XDAT 4 0 0 0 1 0 0 ""
  XDAT 5 1.44873607E-03 0 0 1 0 0 ""
  XDAT 6 -4.57007497E-03 0 0 1 0 0 ""
  XDAT 7 1.22220936E-03 0 0 1 0 0 ""
  XDAT 8 -8.81849829E-05 0 0 1 0 0 ""
  XDAT 9 -3.13466545E-06 0 0 1 0 0 ""
  XDAT 10 -8.63636316E-07 0 0 1 0 0 ""
  XDAT 11 3.14898636E-07 0 0 1 0 0 ""
  XDAT 12 -1.63434945E-08 0 0 1 0 0 ""
  XDAT 13 -8.44979403E-10 0 0 1 0 0 ""
  XDAT 14 2.11519332E-11 0 0 1 0 0 ""
  DISZ  1.9
  CONI  -9.99999182
  GLAS  ___BLANK 1 0 1.805004 40.98 0 0 0 0 0 0
  DIAM  6.17 1 0 0 1 ""
  POPS 0 0 0 0 0 0 0 0 1 1 1 1 0 0 0 0
SURF 14
  TYPE XOSPHERE
  CURV -0.0833333333333333 0 0 0 0
  HIDE 0 0 0 0 0 0 0 0 0 0
  MIRR 2 0
  XDAT 1 12 0 0 1 0 0 ""
  XDAT 2 1 0 0 1 0 0 ""
  XDAT 3 0 0 0 1 0 0 ""
  XDAT 4 0 0 0 1 0 0 ""
  XDAT 5 6.08341085E-04 0 0 1 0 0 ""
  XDAT 6 -5.87639667E-04 0 0 1 0 0 ""
  XDAT 7 1.76418852E-04 0 0 1 0 0 ""
  XDAT 8 -7.54073400E-06 0 0 1 0 0 ""
  XDAT 9 -1.38246135E-06 0 0 1 0 0 ""
  XDAT 10 2.08740129E-07 0 0 1 0 0 ""
  XDAT 11 4.01946484E-08 0 0 1 0 0 ""
  XDAT 12 -2.05178639E-08 0 0 1 0 0 ""
  XDAT 13 2.61661033E-09 0 0 1 0 0 ""
  XDAT 14 -1.08213936E-10 0 0 1 0 0 ""
  DISZ  0.87
  CONI  -9.03456826
  DIAM  8.3 1 0 0 1 ""
  POPS 0 0 0 0 0 0 0 0 1 1 1 1 0 0 0 0
SURF 15
  TYPE STANDARD
  CURV 0.0190764335462899 0 0 0 0
  HIDE 0 0 0 0 0 0 0 0 0 0
  MIRR 2 0
  DISZ  5.66
  GLAS  ___BLANK 1 0 1.834807 42.71 0 0 0 0 0 0
  DIAM  12.61 1 0 0 1 ""
  POPS 0 0 0 0 0 0 0 0 1 1 1 1 0 0 0 0
SURF 16
  TYPE STANDARD
  CURV -0.0334793030948268 0 0 0 0
  HIDE 0 0 0 0 0 0 0 0 0 0
  MIRR 2 0
  DISZ  6.61
  DIAM  12.61 1 0 0 1 ""
  POPS 0 0 0 0 0 0 0 0 1 1 1 1 0 0 0 0
SURF 17
  TYPE STANDARD
  CURV 0 0 0 0 0
  HIDE 0 0 0 0 0 0 0 0 0 0
  MIRR 2 0
  DISZ  2.7
  GLAS  ___BLANK 1 0 1.516330 64.14 0 0 0 0 0 0
  DIAM  14.82 1 0 0 1 ""
  POPS 0 0 0 0 0 0 0 0 1 1 1 1 0 0 0 0
SURF 18
  TYPE STANDARD
  CURV 0 0 0 0 0
  HIDE 0 0 0 0 0 0 0 0 0 0
  MIRR 2 0
  DISZ  2.7
  DIAM  14.82 1 0 0 1 ""
  POPS 0 0 0 0 0 0 0 0 1 1 1 1 0 0 0 0
SURF 19
  TYPE STANDARD
  CURV 0.0 0 0 0 0 ""
  HIDE 0 0 0 0 0 0 0 0 0 0
  MIRR 2 0
  DISZ 0
  DIAM 14.2 1 0 0 1 ""
  POPS 0 0 0 0 0 0 0 0 1 1 1 1 0 0 0 0
TOL TOFF   0   0              0              0   0 0 0 0
MNUM 1 1
