VERS 161019 507 33785
MODE SEQ
NAME US 2014/0285903 Example 1 (Fujifilm Fujinon XF35mm F1.4 R)
NOTE 0 Prepared and converted by Bill Claff.
PFIL 0 0 0
LANG 0
UNIT MM X W X CM MR CPMM
FNUM 1.45 0
ENVD 20 1 0
GFAC 0 0
RAIM 0 2 1 1 0 1 0 0 0
SDMA 0 1 0
FTYP 3 0 3 3 0 0 0
ROPD 2
HYPR 0
PICB 1
XFLN 0 0 0 0 0 0 0 0 0 0 0 0
YFLN 0 9.94 14.2 0 0 0 0 0 0 0 0 0 0
FWGN 1 1 1 1 1 1 1 1 1 1 1 1
VDXN 0 0 0 0 0 0 0 0 0 0 0 0
VDYN 0 0 0 0 0 0 0 0 0 0 0 0
VCXN 0 0 0 0 0 0 0 0 0 0 0 0
VCYN 0 0 0 0 0 0 0 0 0 0 0 0
VANN 0 0 0 0 0 0 0 0 0 0 0 0
WAVM 1 0.4861327 1
WAVM 2 0.5875618 1
WAVM 3 0.6562725 1
WAVM 4 0.550 1
WAVM 5 0.550 1
WAVM 6 0.550 1
WAVM 7 0.550 1
WAVM 8 0.550 1
WAVM 9 0.550 1
WAVM 10 0.550 1
WAVM 11 0.550 1
WAVM 12 0.550 1
WAVM 13 0.550 1
WAVM 14 0.550 1
WAVM 15 0.550 1
WAVM 16 0.550 1
WAVM 17 0.550 1
WAVM 18 0.550 1
WAVM 19 0.550 1
WAVM 20 0.550 1
WAVM 21 0.550 1
WAVM 22 0.550 1
WAVM 23 0.550 1
WAVM 24 0.550 1
PWAV 2
POLS 1 0 1 0 0 1 0
GSTD 0 100 100 100 100 100 100 0 1 1 0 0 1 1 1 1 1 1
NSCD 100 500 0 1.0E-3 5 1.0E-6 0 0 0 0 0 0 1000000 0 2
SURF 0
  TYPE STANDARD
  CURV 0.0 0 0 0 0 ""
  HIDE 0 0 0 0 0 0 0 0 0 0
  MIRR 2 0
  DISZ INFINITY
  DIAM 0 1 0 0 1 ""
  POPS 0 0 0 0 0 0 0 0 1 1 1 1 0 0 0 0
SURF 1
  TYPE STANDARD
  CURV 0.0314792079831271 0 0 0 0
  HIDE 0 0 0 0 0 0 0 0 0 0
  MIRR 2 0
  DISZ  4.7
  GLAS  ___BLANK 1 0 1.75500 52.3 0 0 0 0 0 0
  DIAM  17.19 1 0 0 1 ""
  POPS 0 0 0 0 0 0 0 0 1 1 1 1 0 0 0 0
SURF 2
  TYPE STANDARD
  CURV 0.00925497454881999 0 0 0 0
  HIDE 0 0 0 0 0 0 0 0 0 0
  MIRR 2 0
  DISZ  0.15
  DIAM  17.19 1 0 0 1 ""
  POPS 0 0 0 0 0 0 0 0 1 1 1 1 0 0 0 0
SURF 3
  TYPE STANDARD
  CURV 0.0597621466563079 0 0 0 0
  HIDE 0 0 0 0 0 0 0 0 0 0
  MIRR 2 0
  DISZ  5.01
  GLAS  ___BLANK 1 0 1.80400 46.6 0 0 0 0 0 0
  DIAM  13.17 1 0 0 1 ""
  POPS 0 0 0 0 0 0 0 0 1 1 1 1 0 0 0 0
SURF 4
  TYPE STANDARD
  CURV 0.038501520810072 0 0 0 0
  HIDE 0 0 0 0 0 0 0 0 0 0
  MIRR 2 0
  DISZ  0.2
  DIAM  12.08 1 0 0 1 ""
  POPS 0 0 0 0 0 0 0 0 1 1 1 1 0 0 0 0
SURF 5
  TYPE STANDARD
  CURV 0.0360750360750361 0 0 0 0
  HIDE 0 0 0 0 0 0 0 0 0 0
  MIRR 2 0
  DISZ  1.35
  GLAS  ___BLANK 1 0 1.69895 30.1 0 0 0 0 0 0
  DIAM  12.08 1 0 0 1 ""
  POPS 0 0 0 0 0 0 0 0 1 1 1 1 0 0 0 0
SURF 6
  TYPE STANDARD
  CURV 0.0959324635456639 0 0 0 0
  HIDE 0 0 0 0 0 0 0 0 0 0
  MIRR 2 0
  DISZ  6.27
  DIAM  8.23 1 0 0 1 ""
  POPS 0 0 0 0 0 0 0 0 1 1 1 1 0 0 0 0
SURF 7
  TYPE STANDARD
  CURV 0.0267773463649752 0 0 0 0
  HIDE 0 0 0 0 0 0 0 0 0 0
  MIRR 2 0
  DISZ  1.1
  GLAS  ___BLANK 1 0 1.60342 38.0 0 0 0 0 0 0
  DIAM  9.02 1 0 0 1 ""
  POPS 0 0 0 0 0 0 0 0 1 1 1 1 0 0 0 0
SURF 8
  TYPE STANDARD
  CURV 0.0394088669950739 0 0 0 0
  HIDE 0 0 0 0 0 0 0 0 0 0
  MIRR 2 0
  DISZ  2.73
  DIAM  9.02 1 0 0 1 ""
  POPS 0 0 0 0 0 0 0 0 1 1 1 1 0 0 0 0
SURF 9
  STOP
  TYPE STANDARD
  CURV 0 0 0 0 0
  HIDE 0 0 0 0 0 0 0 0 0 0
  MIRR 2 0
  DISZ  3.2
  DIAM  7.5515 1 0 0 1 ""
  POPS 0 0 0 0 0 0 0 0 1 1 1 1 0 0 0 0
SURF 10
  TYPE XOSPHERE
  CURV -0.0105804431089574 0 0 0 0
  HIDE 0 0 0 0 0 0 0 0 0 0
  MIRR 2 0
  XDAT 1 20 0 0 1 0 0 ""
  XDAT 2 1 0 0 1 0 0 ""
  XDAT 3 0 0 0 1 0 0 ""
  XDAT 4 0 0 0 1 0 0 ""
  XDAT 5 1.4267934E-03 0 0 1 0 0 ""
  XDAT 6 -1.6625706E-03 0 0 1 0 0 ""
  XDAT 7 7.1056683E-04 0 0 1 0 0 ""
  XDAT 8 -9.1063817E-05 0 0 1 0 0 ""
  XDAT 9 -6.7671475E-05 0 0 1 0 0 ""
  XDAT 10 3.1530346E-05 0 0 1 0 0 ""
  XDAT 11 -2.7404199E-06 0 0 1 0 0 ""
  XDAT 12 -1.2148981E-06 0 0 1 0 0 ""
  XDAT 13 2.9053673E-07 0 0 1 0 0 ""
  XDAT 14 6.3508375E-09 0 0 1 0 0 ""
  XDAT 15 -7.9573382E-09 0 0 1 0 0 ""
  XDAT 16 4.5951622E-10 0 0 1 0 0 ""
  XDAT 17 9.3989975E-11 0 0 1 0 0 ""
  XDAT 18 -9.7762088E-12 0 0 1 0 0 ""
  XDAT 19 -4.3352953E-13 0 0 1 0 0 ""
  XDAT 20 7.1170331E-14 0 0 1 0 0 ""
  XDAT 21 2.5581917E-16 0 0 1 0 0 ""
  XDAT 22 -1.6083703E-16 0 0 1 0 0 ""
  DISZ  2.5
  CONI  0
  GLAS  ___BLANK 1 0 1.51760 63.5 0 0 0 0 0 0
  DIAM  8.54 1 0 0 1 ""
  POPS 0 0 0 0 0 0 0 0 1 1 1 1 0 0 0 0
SURF 11
  TYPE XOSPHERE
  CURV 0.0219548608061825 0 0 0 0
  HIDE 0 0 0 0 0 0 0 0 0 0
  MIRR 2 0
  XDAT 1 20 0 0 1 0 0 ""
  XDAT 2 1 0 0 1 0 0 ""
  XDAT 3 0 0 0 1 0 0 ""
  XDAT 4 0 0 0 1 0 0 ""
  XDAT 5 1.4075342E-03 0 0 1 0 0 ""
  XDAT 6 -1.5407051E-03 0 0 1 0 0 ""
  XDAT 7 7.2833847E-04 0 0 1 0 0 ""
  XDAT 8 -1.3764849E-04 0 0 1 0 0 ""
  XDAT 9 -3.4723387E-05 0 0 1 0 0 ""
  XDAT 10 2.1553742E-05 0 0 1 0 0 ""
  XDAT 11 -2.4723865E-06 0 0 1 0 0 ""
  XDAT 12 -6.0987942E-07 0 0 1 0 0 ""
  XDAT 13 1.7824931E-07 0 0 1 0 0 ""
  XDAT 14 -3.5081942E-09 0 0 1 0 0 ""
  XDAT 15 -3.6689473E-09 0 0 1 0 0 ""
  XDAT 16 3.8060840E-10 0 0 1 0 0 ""
  XDAT 17 2.1235855E-11 0 0 1 0 0 ""
  XDAT 18 -5.4237286E-12 0 0 1 0 0 ""
  XDAT 19 1.6515932E-13 0 0 1 0 0 ""
  XDAT 20 2.1078707E-14 0 0 1 0 0 ""
  XDAT 21 -1.6918406E-15 0 0 1 0 0 ""
  XDAT 22 3.4763829E-17 0 0 1 0 0 ""
  DISZ  0.45
  CONI  0
  DIAM  8.54 1 0 0 1 ""
  POPS 0 0 0 0 0 0 0 0 1 1 1 1 0 0 0 0
SURF 12
  TYPE STANDARD
  CURV 0 0 0 0 0
  HIDE 0 0 0 0 0 0 0 0 0 0
  MIRR 2 0
  DISZ  6.72
  GLAS  ___BLANK 1 0 1.88300 40.8 0 0 0 0 0 0
  DIAM  9.5 1 0 0 1 ""
  POPS 0 0 0 0 0 0 0 0 1 1 1 1 0 0 0 0
SURF 13
  TYPE STANDARD
  CURV -0.0894934669769107 0 0 0 0
  HIDE 0 0 0 0 0 0 0 0 0 0
  MIRR 2 0
  DISZ  1.2
  GLAS  ___BLANK 1 0 1.76182 26.5 0 0 0 0 0 0
  DIAM  9.5 1 0 0 1 ""
  POPS 0 0 0 0 0 0 0 0 1 1 1 1 0 0 0 0
SURF 14
  TYPE STANDARD
  CURV -0.00803212851405622 0 0 0 0
  HIDE 0 0 0 0 0 0 0 0 0 0
  MIRR 2 0
  DISZ  4.99
  GLAS  ___BLANK 1 0 1.88300 40.8 0 0 0 0 0 0
  DIAM  12.38 1 0 0 1 ""
  POPS 0 0 0 0 0 0 0 0 1 1 1 1 0 0 0 0
SURF 15
  TYPE STANDARD
  CURV -0.0487424449210372 0 0 0 0
  HIDE 0 0 0 0 0 0 0 0 0 0
  MIRR 2 0
  DISZ  17
  DIAM  12.38 1 0 0 1 ""
  POPS 0 0 0 0 0 0 0 0 1 1 1 1 0 0 0 0
SURF 16
  TYPE STANDARD
  CURV 0 0 0 0 0
  HIDE 0 0 0 0 0 0 0 0 0 0
  MIRR 2 0
  DISZ  2.8
  GLAS  ___BLANK 1 0 1.51680 64.2 0 0 0 0 0 0
  DIAM  13.91 1 0 0 1 ""
  POPS 0 0 0 0 0 0 0 0 1 1 1 1 0 0 0 0
SURF 17
  TYPE STANDARD
  CURV 0 0 0 0 0
  HIDE 0 0 0 0 0 0 0 0 0 0
  MIRR 2 0
  DISZ  3.13
  DIAM  13.91 1 0 0 1 ""
  POPS 0 0 0 0 0 0 0 0 1 1 1 1 0 0 0 0
SURF 18
  TYPE STANDARD
  CURV 0.0 0 0 0 0 ""
  HIDE 0 0 0 0 0 0 0 0 0 0
  MIRR 2 0
  DISZ 0
  DIAM 14.2 1 0 0 1 ""
  POPS 0 0 0 0 0 0 0 0 1 1 1 1 0 0 0 0
TOL TOFF   0   0              0              0   0 0 0 0
MNUM 1 1
