VERS 161019 507 33785
MODE SEQ
NAME US 2022/0276464 Example 7 (Fujifilm Fujinon XF23mm F1.4 R LM WR)
NOTE 0 Prepared and converted by Bill Claff.
PFIL 0 0 0
LANG 0
UNIT MM X W X CM MR CPMM
FNUM 1.44 0
ENVD 20 1 0
GFAC 0 0
RAIM 0 2 1 1 0 1 0 0 0
SDMA 0 1 0
FTYP 3 0 3 3 0 0 0
ROPD 2
HYPR 0
PICB 1
XFLN 0 0 0 0 0 0 0 0 0 0 0 0
YFLN 0 10.115 14.45 0 0 0 0 0 0 0 0 0 0
FWGN 1 1 1 1 1 1 1 1 1 1 1 1
VDXN 0 0 0 0 0 0 0 0 0 0 0 0
VDYN 0 0 0 0 0 0 0 0 0 0 0 0
VCXN 0 0 0 0 0 0 0 0 0 0 0 0
VCYN 0 0 0 0 0 0 0 0 0 0 0 0
VANN 0 0 0 0 0 0 0 0 0 0 0 0
WAVM 1 0.4861327 1
WAVM 2 0.5875618 1
WAVM 3 0.6562725 1
WAVM 4 0.550 1
WAVM 5 0.550 1
WAVM 6 0.550 1
WAVM 7 0.550 1
WAVM 8 0.550 1
WAVM 9 0.550 1
WAVM 10 0.550 1
WAVM 11 0.550 1
WAVM 12 0.550 1
WAVM 13 0.550 1
WAVM 14 0.550 1
WAVM 15 0.550 1
WAVM 16 0.550 1
WAVM 17 0.550 1
WAVM 18 0.550 1
WAVM 19 0.550 1
WAVM 20 0.550 1
WAVM 21 0.550 1
WAVM 22 0.550 1
WAVM 23 0.550 1
WAVM 24 0.550 1
PWAV 2
POLS 1 0 1 0 0 1 0
GSTD 0 100 100 100 100 100 100 0 1 1 0 0 1 1 1 1 1 1
NSCD 100 500 0 1.0E-3 5 1.0E-6 0 0 0 0 0 0 1000000 0 2
SURF 0
  TYPE STANDARD
  CURV 0.0 0 0 0 0 ""
  HIDE 0 0 0 0 0 0 0 0 0 0
  MIRR 2 0
  DISZ INFINITY
  DIAM 0 1 0 0 1 ""
  POPS 0 0 0 0 0 0 0 0 1 1 1 1 0 0 0 0
SURF 1
  TYPE STANDARD
  CURV -0.0011267890028999 0 0 0 0
  HIDE 0 0 0 0 0 0 0 0 0 0
  MIRR 2 0
  DISZ  1.05
  GLAS  ___BLANK 1 0 1.53996 59.73 0 0 0 0 0 0
  DIAM  16.62 1 0 0 1 ""
  POPS 0 0 0 0 0 0 0 0 1 1 1 1 0 0 0 0
SURF 2
  TYPE STANDARD
  CURV 0.0243016909116536 0 0 0 0
  HIDE 0 0 0 0 0 0 0 0 0 0
  MIRR 2 0
  DISZ  6.07
  DIAM  14.48 1 0 0 1 ""
  POPS 0 0 0 0 0 0 0 0 1 1 1 1 0 0 0 0
SURF 3
  TYPE STANDARD
  CURV -0.0243016909116536 0 0 0 0
  HIDE 0 0 0 0 0 0 0 0 0 0
  MIRR 2 0
  DISZ  2.9
  GLAS  ___BLANK 1 0 1.88300 40.80 0 0 0 0 0 0
  DIAM  14.65 1 0 0 1 ""
  POPS 0 0 0 0 0 0 0 0 1 1 1 1 0 0 0 0
SURF 4
  TYPE STANDARD
  CURV -0.0343921530863518 0 0 0 0
  HIDE 0 0 0 0 0 0 0 0 0 0
  MIRR 2 0
  DISZ  1.21
  GLAS  ___BLANK 1 0 1.80809 22.76 0 0 0 0 0 0
  DIAM  14.65 1 0 0 1 ""
  POPS 0 0 0 0 0 0 0 0 1 1 1 1 0 0 0 0
SURF 5
  TYPE STANDARD
  CURV 0.0166809845117059 0 0 0 0
  HIDE 0 0 0 0 0 0 0 0 0 0
  MIRR 2 0
  DISZ  2.43
  DIAM  13.82 1 0 0 1 ""
  POPS 0 0 0 0 0 0 0 0 1 1 1 1 0 0 0 0
SURF 6
  TYPE STANDARD
  CURV 0.00260769384422576 0 0 0 0
  HIDE 0 0 0 0 0 0 0 0 0 0
  MIRR 2 0
  DISZ  5.21
  GLAS  ___BLANK 1 0 1.88300 40.80 0 0 0 0 0 0
  DIAM  14.61 1 0 0 1 ""
  POPS 0 0 0 0 0 0 0 0 1 1 1 1 0 0 0 0
SURF 7
  TYPE STANDARD
  CURV -0.0326645804887928 0 0 0 0
  HIDE 0 0 0 0 0 0 0 0 0 0
  MIRR 2 0
  DISZ  1.24
  GLAS  ___BLANK 1 0 1.59270 35.31 0 0 0 0 0 0
  DIAM  14.61 1 0 0 1 ""
  POPS 0 0 0 0 0 0 0 0 1 1 1 1 0 0 0 0
SURF 8
  TYPE STANDARD
  CURV 0.0326645804887928 0 0 0 0
  HIDE 0 0 0 0 0 0 0 0 0 0
  MIRR 2 0
  DISZ  5.28
  GLAS  ___BLANK 1 0 1.88300 40.80 0 0 0 0 0 0
  DIAM  14.61 1 0 0 1 ""
  POPS 0 0 0 0 0 0 0 0 1 1 1 1 0 0 0 0
SURF 9
  TYPE STANDARD
  CURV -0.00485690819909244 0 0 0 0
  HIDE 0 0 0 0 0 0 0 0 0 0
  MIRR 2 0
  DISZ  1.92
  DIAM  14.61 1 0 0 1 ""
  POPS 0 0 0 0 0 0 0 0 1 1 1 1 0 0 0 0
SURF 10
  TYPE STANDARD
  CURV 0.017441931449721 0 0 0 0
  HIDE 0 0 0 0 0 0 0 0 0 0
  MIRR 2 0
  DISZ  3.08
  GLAS  ___BLANK 1 0 1.95906 17.47 0 0 0 0 0 0
  DIAM  13.87 1 0 0 1 ""
  POPS 0 0 0 0 0 0 0 0 1 1 1 1 0 0 0 0
SURF 11
  TYPE STANDARD
  CURV -0.00182250812109619 0 0 0 0
  HIDE 0 0 0 0 0 0 0 0 0 0
  MIRR 2 0
  DISZ  4.53
  DIAM  13.87 1 0 0 1 ""
  POPS 0 0 0 0 0 0 0 0 1 1 1 1 0 0 0 0
SURF 12
  STOP
  TYPE STANDARD
  CURV 0 0 0 0 0
  HIDE 0 0 0 0 0 0 0 0 0 0
  MIRR 2 0
  DISZ  7.1
  DIAM  12.041 1 0 0 1 ""
  POPS 0 0 0 0 0 0 0 0 1 1 1 1 0 0 0 0
SURF 13
  TYPE STANDARD
  CURV 0.0491540586506228 0 0 0 0
  HIDE 0 0 0 0 0 0 0 0 0 0
  MIRR 2 0
  DISZ  5.7
  GLAS  ___BLANK 1 0 1.59282 68.62 0 0 0 0 0 0
  DIAM  11.55 1 0 0 1 ""
  POPS 0 0 0 0 0 0 0 0 1 1 1 1 0 0 0 0
SURF 14
  TYPE STANDARD
  CURV -0.0160820570880863 0 0 0 0
  HIDE 0 0 0 0 0 0 0 0 0 0
  MIRR 2 0
  DISZ  1.01
  GLAS  ___BLANK 1 0 1.53172 48.85 0 0 0 0 0 0
  DIAM  11.55 1 0 0 1 ""
  POPS 0 0 0 0 0 0 0 0 1 1 1 1 0 0 0 0
SURF 15
  TYPE STANDARD
  CURV 0.0506937438850672 0 0 0 0
  HIDE 0 0 0 0 0 0 0 0 0 0
  MIRR 2 0
  DISZ  4.9315
  DIAM  9.41 1 0 0 1 ""
  POPS 0 0 0 0 0 0 0 0 1 1 1 1 0 0 0 0
SURF 16
  TYPE STANDARD
  CURV -0.054038572733217 0 0 0 0
  HIDE 0 0 0 0 0 0 0 0 0 0
  MIRR 2 0
  DISZ  0.9
  GLAS  ___BLANK 1 0 1.71736 29.51 0 0 0 0 0 0
  DIAM  9.41 1 0 0 1 ""
  POPS 0 0 0 0 0 0 0 0 1 1 1 1 0 0 0 0
SURF 17
  TYPE STANDARD
  CURV 0.0241440919407021 0 0 0 0
  HIDE 0 0 0 0 0 0 0 0 0 0
  MIRR 2 0
  DISZ  2.78
  GLAS  ___BLANK 1 0 1.69680 55.53 0 0 0 0 0 0
  DIAM  10.42 1 0 0 1 ""
  POPS 0 0 0 0 0 0 0 0 1 1 1 1 0 0 0 0
SURF 18
  TYPE STANDARD
  CURV -0.00757781851276218 0 0 0 0
  HIDE 0 0 0 0 0 0 0 0 0 0
  MIRR 2 0
  DISZ  0.2
  DIAM  10.42 1 0 0 1 ""
  POPS 0 0 0 0 0 0 0 0 1 1 1 1 0 0 0 0
SURF 19
  TYPE STANDARD
  CURV 0.0379970970217875 0 0 0 0
  HIDE 0 0 0 0 0 0 0 0 0 0
  MIRR 2 0
  DISZ  6.64
  GLAS  ___BLANK 1 0 1.59282 68.62 0 0 0 0 0 0
  DIAM  11.93 1 0 0 1 ""
  POPS 0 0 0 0 0 0 0 0 1 1 1 1 0 0 0 0
SURF 20
  TYPE STANDARD
  CURV -0.0379970970217875 0 0 0 0
  HIDE 0 0 0 0 0 0 0 0 0 0
  MIRR 2 0
  DISZ  1.21
  DIAM  11.93 1 0 0 1 ""
  POPS 0 0 0 0 0 0 0 0 1 1 1 1 0 0 0 0
SURF 21
  TYPE XOSPHERE
  CURV -0.0209145515083575 0 0 0 0
  HIDE 0 0 0 0 0 0 0 0 0 0
  MIRR 2 0
  XDAT 1 14 0 0 1 0 0 ""
  XDAT 2 1 0 0 1 0 0 ""
  XDAT 3 0 0 0 1 0 0 ""
  XDAT 4 0 0 0 1 0 0 ""
  XDAT 5 0 0 0 1 0 0 ""
  XDAT 6 -2.5889736E-05 0 0 1 0 0 ""
  XDAT 7 -1.2982469E-05 0 0 1 0 0 ""
  XDAT 8 3.9674529E-06 0 0 1 0 0 ""
  XDAT 9 -3.3303227E-07 0 0 1 0 0 ""
  XDAT 10 -3.6339144E-08 0 0 1 0 0 ""
  XDAT 11 8.3507781E-09 0 0 1 0 0 ""
  XDAT 12 -8.8865392E-11 0 0 1 0 0 ""
  XDAT 13 -6.1824538E-11 0 0 1 0 0 ""
  XDAT 14 2.4978937E-12 0 0 1 0 0 ""
  XDAT 15 1.5432811E-13 0 0 1 0 0 ""
  XDAT 16 -8.6065364E-15 0 0 1 0 0 ""
  DISZ  2.75
  CONI  0
  GLAS  ___BLANK 1 0 1.80610 40.73 0 0 0 0 0 0
  DIAM  12.15 1 0 0 1 ""
  POPS 0 0 0 0 0 0 0 0 1 1 1 1 0 0 0 0
SURF 22
  TYPE XOSPHERE
  CURV -0.033471458887007 0 0 0 0
  HIDE 0 0 0 0 0 0 0 0 0 0
  MIRR 2 0
  XDAT 1 14 0 0 1 0 0 ""
  XDAT 2 1 0 0 1 0 0 ""
  XDAT 3 0 0 0 1 0 0 ""
  XDAT 4 0 0 0 1 0 0 ""
  XDAT 5 0 0 0 1 0 0 ""
  XDAT 6 3.8776676E-05 0 0 1 0 0 ""
  XDAT 7 -2.5112083E-05 0 0 1 0 0 ""
  XDAT 8 6.3074834E-06 0 0 1 0 0 ""
  XDAT 9 -3.8211736E-07 0 0 1 0 0 ""
  XDAT 10 -7.3012005E-08 0 0 1 0 0 ""
  XDAT 11 1.1737062E-08 0 0 1 0 0 ""
  XDAT 12 5.8414358E-11 0 0 1 0 0 ""
  XDAT 13 -9.0385482E-11 0 0 1 0 0 ""
  XDAT 14 2.8952969E-12 0 0 1 0 0 ""
  XDAT 15 2.2843368E-13 0 0 1 0 0 ""
  XDAT 16 -1.1340132E-14 0 0 1 0 0 ""
  DISZ  1.75
  CONI  0
  DIAM  12.15 1 0 0 1 ""
  POPS 0 0 0 0 0 0 0 0 1 1 1 1 0 0 0 0
SURF 23
  TYPE STANDARD
  CURV 0.0238448368774709 0 0 0 0
  HIDE 0 0 0 0 0 0 0 0 0 0
  MIRR 2 0
  DISZ  3.47
  GLAS  ___BLANK 1 0 1.59282 68.62 0 0 0 0 0 0
  DIAM  12.8 1 0 0 1 ""
  POPS 0 0 0 0 0 0 0 0 1 1 1 1 0 0 0 0
SURF 24
  TYPE STANDARD
  CURV -0.00549278824367547 0 0 0 0
  HIDE 0 0 0 0 0 0 0 0 0 0
  MIRR 2 0
  DISZ  0.1705
  DIAM  12.1 1 0 0 1 ""
  POPS 0 0 0 0 0 0 0 0 1 1 1 1 0 0 0 0
SURF 25
  TYPE XOSPHERE
  CURV -0.0103528349685636 0 0 0 0
  HIDE 0 0 0 0 0 0 0 0 0 0
  MIRR 2 0
  XDAT 1 14 0 0 1 0 0 ""
  XDAT 2 1 0 0 1 0 0 ""
  XDAT 3 0 0 0 1 0 0 ""
  XDAT 4 0 0 0 1 0 0 ""
  XDAT 5 0 0 0 1 0 0 ""
  XDAT 6 7.2364942E-06 0 0 1 0 0 ""
  XDAT 7 5.0239052E-06 0 0 1 0 0 ""
  XDAT 8 -2.1832431E-07 0 0 1 0 0 ""
  XDAT 9 -2.7355498E-07 0 0 1 0 0 ""
  XDAT 10 3.9540483E-08 0 0 1 0 0 ""
  XDAT 11 1.0727165E-09 0 0 1 0 0 ""
  XDAT 12 -4.4759311E-10 0 0 1 0 0 ""
  XDAT 13 1.2086165E-11 0 0 1 0 0 ""
  XDAT 14 1.4154146E-12 0 0 1 0 0 ""
  XDAT 15 -6.6987628E-14 0 0 1 0 0 ""
  XDAT 16 1.6259149E-17 0 0 1 0 0 ""
  DISZ  1.6
  CONI  0
  GLAS  ___BLANK 1 0 1.68863 31.20 0 0 0 0 0 0
  DIAM  12.1 1 0 0 1 ""
  POPS 0 0 0 0 0 0 0 0 1 1 1 1 0 0 0 0
SURF 26
  TYPE XOSPHERE
  CURV 0.0250678084217809 0 0 0 0
  HIDE 0 0 0 0 0 0 0 0 0 0
  MIRR 2 0
  XDAT 1 14 0 0 1 0 0 ""
  XDAT 2 1 0 0 1 0 0 ""
  XDAT 3 0 0 0 1 0 0 ""
  XDAT 4 0 0 0 1 0 0 ""
  XDAT 5 0 0 0 1 0 0 ""
  XDAT 6 -2.7396067E-05 0 0 1 0 0 ""
  XDAT 7 3.6746936E-05 0 0 1 0 0 ""
  XDAT 8 -1.0191898E-05 0 0 1 0 0 ""
  XDAT 9 1.1281121E-06 0 0 1 0 0 ""
  XDAT 10 -5.4977919E-09 0 0 1 0 0 ""
  XDAT 11 -1.0847982E-08 0 0 1 0 0 ""
  XDAT 12 1.0246797E-09 0 0 1 0 0 ""
  XDAT 13 -1.8775158E-11 0 0 1 0 0 ""
  XDAT 14 -3.3599052E-12 0 0 1 0 0 ""
  XDAT 15 2.7496660E-13 0 0 1 0 0 ""
  XDAT 16 -6.8934430E-15 0 0 1 0 0 ""
  DISZ  12.4725
  CONI  0
  DIAM  12.1 1 0 0 1 ""
  POPS 0 0 0 0 0 0 0 0 1 1 1 1 0 0 0 0
SURF 27
  TYPE STANDARD
  CURV 0 0 0 0 0
  HIDE 0 0 0 0 0 0 0 0 0 0
  MIRR 2 0
  DISZ  2.85
  GLAS  ___BLANK 1 0 1.51680 64.20 0 0 0 0 0 0
  DIAM  14.9 1 0 0 1 ""
  POPS 0 0 0 0 0 0 0 0 1 1 1 1 0 0 0 0
SURF 28
  TYPE STANDARD
  CURV 0 0 0 0 0
  HIDE 0 0 0 0 0 0 0 0 0 0
  MIRR 2 0
  DISZ  0.2112
  DIAM  14.9 1 0 0 1 ""
  POPS 0 0 0 0 0 0 0 0 1 1 1 1 0 0 0 0
SURF 29
  TYPE STANDARD
  CURV 0.0 0 0 0 0 ""
  HIDE 0 0 0 0 0 0 0 0 0 0
  MIRR 2 0
  DISZ 0
  DIAM 14.45 1 0 0 1 ""
  POPS 0 0 0 0 0 0 0 0 1 1 1 1 0 0 0 0
TOL TOFF   0   0              0              0   0 0 0 0
MNUM 2 1
THIC   0   1 1.00E+10 0 0 0 1 1 1 0 0
THIC   0   2 100.57 0 0 0 1 1 1 0 0
THIC   12   1 7.1000 0 0 0 1 1 1 0 0
THIC   12   2 2.3603 0 0 0 1 1 1 0 0
THIC   22   1 1.7500 0 0 0 1 1 1 0 0
THIC   22   2 6.4897 0 0 0 1 1 1 0 0
