VERS 161019 507 33785
MODE SEQ
NAME US 2017/0010441 Example 1 (Fujifilm Fujinon XF35mm F2 R WR)
NOTE 0 Prepared and converted by Bill Claff.
PFIL 0 0 0
LANG 0
UNIT MM X W X CM MR CPMM
FNUM 2.09 0
ENVD 20 1 0
GFAC 0 0
RAIM 0 2 1 1 0 1 0 0 0
SDMA 0 1 0
FTYP 3 0 3 3 0 0 0
ROPD 2
HYPR 0
PICB 1
XFLN 0 0 0 0 0 0 0 0 0 0 0 0
YFLN 0 9.94 14.2 0 0 0 0 0 0 0 0 0 0
FWGN 1 1 1 1 1 1 1 1 1 1 1 1
VDXN 0 0 0 0 0 0 0 0 0 0 0 0
VDYN 0 0 0 0 0 0 0 0 0 0 0 0
VCXN 0 0 0 0 0 0 0 0 0 0 0 0
VCYN 0 0 0 0 0 0 0 0 0 0 0 0
VANN 0 0 0 0 0 0 0 0 0 0 0 0
WAVM 1 0.4861327 1
WAVM 2 0.5875618 1
WAVM 3 0.6562725 1
WAVM 4 0.550 1
WAVM 5 0.550 1
WAVM 6 0.550 1
WAVM 7 0.550 1
WAVM 8 0.550 1
WAVM 9 0.550 1
WAVM 10 0.550 1
WAVM 11 0.550 1
WAVM 12 0.550 1
WAVM 13 0.550 1
WAVM 14 0.550 1
WAVM 15 0.550 1
WAVM 16 0.550 1
WAVM 17 0.550 1
WAVM 18 0.550 1
WAVM 19 0.550 1
WAVM 20 0.550 1
WAVM 21 0.550 1
WAVM 22 0.550 1
WAVM 23 0.550 1
WAVM 24 0.550 1
PWAV 2
POLS 1 0 1 0 0 1 0
GSTD 0 100 100 100 100 100 100 0 1 1 0 0 1 1 1 1 1 1
NSCD 100 500 0 1.0E-3 5 1.0E-6 0 0 0 0 0 0 1000000 0 2
SURF 0
  TYPE STANDARD
  CURV 0.0 0 0 0 0 ""
  HIDE 0 0 0 0 0 0 0 0 0 0
  MIRR 2 0
  DISZ INFINITY
  DIAM 0 1 0 0 1 ""
  POPS 0 0 0 0 0 0 0 0 1 1 1 1 0 0 0 0
SURF 1
  TYPE STANDARD
  CURV 0.0208000013312001 0 0 0 0
  HIDE 0 0 0 0 0 0 0 0 0 0
  MIRR 2 0
  DISZ  2.794
  GLAS  ___BLANK 1 0 1.88300 40.76 0 0 0 0 0 0
  DIAM  13.84 1 0 0 1 ""
  POPS 0 0 0 0 0 0 0 0 1 1 1 1 0 0 0 0
SURF 2
  TYPE STANDARD
  CURV 0.0052000000624 0 0 0 0
  HIDE 0 0 0 0 0 0 0 0 0 0
  MIRR 2 0
  DISZ  0.1
  DIAM  13.84 1 0 0 1 ""
  POPS 0 0 0 0 0 0 0 0 1 1 1 1 0 0 0 0
SURF 3
  TYPE STANDARD
  CURV 0.0379999559200511 0 0 0 0
  HIDE 0 0 0 0 0 0 0 0 0 0
  MIRR 2 0
  DISZ  4.01
  GLAS  ___BLANK 1 0 1.75500 52.32 0 0 0 0 0 0
  DIAM  12.11 1 0 0 1 ""
  POPS 0 0 0 0 0 0 0 0 1 1 1 1 0 0 0 0
SURF 4
  TYPE STANDARD
  CURV 0 0 0 0 0
  HIDE 0 0 0 0 0 0 0 0 0 0
  MIRR 2 0
  DISZ  0.925
  GLAS  ___BLANK 1 0 1.89286 20.36 0 0 0 0 0 0
  DIAM  12.11 1 0 0 1 ""
  POPS 0 0 0 0 0 0 0 0 1 1 1 1 0 0 0 0
SURF 5
  TYPE STANDARD
  CURV 0.0121210137773503 0 0 0 0
  HIDE 0 0 0 0 0 0 0 0 0 0
  MIRR 2 0
  DISZ  3.214
  DIAM  10.805 1 0 0 1 ""
  POPS 0 0 0 0 0 0 0 0 1 1 1 1 0 0 0 0
SURF 6
  TYPE STANDARD
  CURV -0.00400000288000207 0 0 0 0
  HIDE 0 0 0 0 0 0 0 0 0 0
  MIRR 2 0
  DISZ  0.85
  GLAS  ___BLANK 1 0 1.75500 52.32 0 0 0 0 0 0
  DIAM  8.475 1 0 0 1 ""
  POPS 0 0 0 0 0 0 0 0 1 1 1 1 0 0 0 0
SURF 7
  TYPE STANDARD
  CURV 0.0502800093721937 0 0 0 0
  HIDE 0 0 0 0 0 0 0 0 0 0
  MIRR 2 0
  DISZ  7.498
  DIAM  7.31 1 0 0 1 ""
  POPS 0 0 0 0 0 0 0 0 1 1 1 1 0 0 0 0
SURF 8
  STOP
  TYPE STANDARD
  CURV 0 0 0 0 0
  HIDE 0 0 0 0 0 0 0 0 0 0
  MIRR 2 0
  DISZ  3.994
  DIAM  6.1715 1 0 0 1 ""
  POPS 0 0 0 0 0 0 0 0 1 1 1 1 0 0 0 0
SURF 9
  TYPE XOSPHERE
  CURV 0.0160481985174995 0 0 0 0
  HIDE 0 0 0 0 0 0 0 0 0 0
  MIRR 2 0
  XDAT 1 20 0 0 1 0 0 ""
  XDAT 2 1 0 0 1 0 0 ""
  XDAT 3 0 0 0 1 0 0 ""
  XDAT 4 0 0 0 1 0 0 ""
  XDAT 5 -1.2643757E-18 0 0 1 0 0 ""
  XDAT 6 1.0564294E-04 0 0 1 0 0 ""
  XDAT 7 -8.4672574E-05 0 0 1 0 0 ""
  XDAT 8 -4.0381816E-05 0 0 1 0 0 ""
  XDAT 9 5.4863043E-05 0 0 1 0 0 ""
  XDAT 10 -1.8547523E-05 0 0 1 0 0 ""
  XDAT 11 7.1905820E-07 0 0 1 0 0 ""
  XDAT 12 1.0273073E-06 0 0 1 0 0 ""
  XDAT 13 -2.3209720E-07 0 0 1 0 0 ""
  XDAT 14 2.3251601E-10 0 0 1 0 0 ""
  XDAT 15 6.8269048E-09 0 0 1 0 0 ""
  XDAT 16 -9.6610366E-10 0 0 1 0 0 ""
  XDAT 17 -1.0773615E-11 0 0 1 0 0 ""
  XDAT 18 1.8361819E-11 0 0 1 0 0 ""
  XDAT 19 -1.8742420E-12 0 0 1 0 0 ""
  XDAT 20 -3.8276515E-14 0 0 1 0 0 ""
  XDAT 21 1.8367620E-14 0 0 1 0 0 ""
  XDAT 22 -9.0677432E-16 0 0 1 0 0 ""
  DISZ  3.125
  CONI  -1.04748686
  GLAS  ___BLANK 1 0 1.61881 63.85 0 0 0 0 0 0
  DIAM  6.905 1 0 0 1 ""
  POPS 0 0 0 0 0 0 0 0 1 1 1 1 0 0 0 0
SURF 10
  TYPE XOSPHERE
  CURV -0.0456080996336301 0 0 0 0
  HIDE 0 0 0 0 0 0 0 0 0 0
  MIRR 2 0
  XDAT 1 20 0 0 1 0 0 ""
  XDAT 2 1 0 0 1 0 0 ""
  XDAT 3 0 0 0 1 0 0 ""
  XDAT 4 0 0 0 1 0 0 ""
  XDAT 5 -1.6447749E-18 0 0 1 0 0 ""
  XDAT 6 1.3648227E-04 0 0 1 0 0 ""
  XDAT 7 -1.8257331E-05 0 0 1 0 0 ""
  XDAT 8 -1.4750820E-04 0 0 1 0 0 ""
  XDAT 9 1.3195012E-04 0 0 1 0 0 ""
  XDAT 10 -4.3615873E-05 0 0 1 0 0 ""
  XDAT 11 2.5433238E-06 0 0 1 0 0 ""
  XDAT 12 1.9712984E-06 0 0 1 0 0 ""
  XDAT 13 -3.9405286E-07 0 0 1 0 0 ""
  XDAT 14 -2.7267968E-08 0 0 1 0 0 ""
  XDAT 15 1.3302317E-08 0 0 1 0 0 ""
  XDAT 16 -2.2666307E-10 0 0 1 0 0 ""
  XDAT 17 -2.2810661E-10 0 0 1 0 0 ""
  XDAT 18 1.2408051E-11 0 0 1 0 0 ""
  XDAT 19 2.0954425E-12 0 0 1 0 0 ""
  XDAT 20 -1.6023253E-13 0 0 1 0 0 ""
  XDAT 21 -8.2114964E-15 0 0 1 0 0 ""
  XDAT 22 7.4848161E-16 0 0 1 0 0 ""
  DISZ  0.225
  CONI  -0.54007933
  DIAM  7.7 1 0 0 1 ""
  POPS 0 0 0 0 0 0 0 0 1 1 1 1 0 0 0 0
SURF 11
  TYPE STANDARD
  CURV -0.0493141632742632 0 0 0 0
  HIDE 0 0 0 0 0 0 0 0 0 0
  MIRR 2 0
  DISZ  4.385
  GLAS  ___BLANK 1 0 1.77250 49.60 0 0 0 0 0 0
  DIAM  7.81 1 0 0 1 ""
  POPS 0 0 0 0 0 0 0 0 1 1 1 1 0 0 0 0
SURF 12
  TYPE STANDARD
  CURV -0.096799986060802 0 0 0 0
  HIDE 0 0 0 0 0 0 0 0 0 0
  MIRR 2 0
  DISZ  0.86
  GLAS  ___BLANK 1 0 1.60342 38.03 0 0 0 0 0 0
  DIAM  8.62 1 0 0 1 ""
  POPS 0 0 0 0 0 0 0 0 1 1 1 1 0 0 0 0
SURF 13
  TYPE STANDARD
  CURV 0.0456672719102437 0 0 0 0
  HIDE 0 0 0 0 0 0 0 0 0 0
  MIRR 2 0
  DISZ  7.5
  GLAS  ___BLANK 1 0 1.77250 49.60 0 0 0 0 0 0
  DIAM  10.145 1 0 0 1 ""
  POPS 0 0 0 0 0 0 0 0 1 1 1 1 0 0 0 0
SURF 14
  TYPE STANDARD
  CURV -0.0456672719102437 0 0 0 0
  HIDE 0 0 0 0 0 0 0 0 0 0
  MIRR 2 0
  DISZ  5.519
  DIAM  11.12 1 0 0 1 ""
  POPS 0 0 0 0 0 0 0 0 1 1 1 1 0 0 0 0
SURF 15
  TYPE XOSPHERE
  CURV -0.0703999279104738 0 0 0 0
  HIDE 0 0 0 0 0 0 0 0 0 0
  MIRR 2 0
  XDAT 1 20 0 0 1 0 0 ""
  XDAT 2 1 0 0 1 0 0 ""
  XDAT 3 0 0 0 1 0 0 ""
  XDAT 4 0 0 0 1 0 0 ""
  XDAT 5 -1.9493628E-18 0 0 1 0 0 ""
  XDAT 6 -2.5784133E-04 0 0 1 0 0 ""
  XDAT 7 2.7063703E-04 0 0 1 0 0 ""
  XDAT 8 -1.1145518E-04 0 0 1 0 0 ""
  XDAT 9 1.3088266E-05 0 0 1 0 0 ""
  XDAT 10 2.9935319E-06 0 0 1 0 0 ""
  XDAT 11 -8.8653080E-07 0 0 1 0 0 ""
  XDAT 12 7.4602330E-09 0 0 1 0 0 ""
  XDAT 13 1.8805990E-08 0 0 1 0 0 ""
  XDAT 14 -1.4435222E-09 0 0 1 0 0 ""
  XDAT 15 -1.6166265E-10 0 0 1 0 0 ""
  XDAT 16 2.3633018E-11 0 0 1 0 0 ""
  XDAT 17 8.1185882E-14 0 0 1 0 0 ""
  XDAT 18 -1.4708308E-13 0 0 1 0 0 ""
  XDAT 19 6.7434567E-15 0 0 1 0 0 ""
  XDAT 20 1.9896264E-16 0 0 1 0 0 ""
  XDAT 21 -2.8464253E-17 0 0 1 0 0 ""
  XDAT 22 8.5380389E-19 0 0 1 0 0 ""
  DISZ  1
  CONI  -2.6703883
  GLAS  ___BLANK 1 0 1.51633 64.06 0 0 0 0 0 0
  DIAM  10.345 1 0 0 1 ""
  POPS 0 0 0 0 0 0 0 0 1 1 1 1 0 0 0 0
SURF 16
  TYPE XOSPHERE
  CURV -0.0103759787790482 0 0 0 0
  HIDE 0 0 0 0 0 0 0 0 0 0
  MIRR 2 0
  XDAT 1 20 0 0 1 0 0 ""
  XDAT 2 1 0 0 1 0 0 ""
  XDAT 3 0 0 0 1 0 0 ""
  XDAT 4 0 0 0 1 0 0 ""
  XDAT 5 -3.1677145E-18 0 0 1 0 0 ""
  XDAT 6 -1.1573006E-05 0 0 1 0 0 ""
  XDAT 7 6.7399444E-05 0 0 1 0 0 ""
  XDAT 8 -2.2887143E-05 0 0 1 0 0 ""
  XDAT 9 2.1959363E-08 0 0 1 0 0 ""
  XDAT 10 9.7674734E-07 0 0 1 0 0 ""
  XDAT 11 -3.6780866E-08 0 0 1 0 0 ""
  XDAT 12 -3.5471268E-08 0 0 1 0 0 ""
  XDAT 13 3.4858475E-09 0 0 1 0 0 ""
  XDAT 14 5.0526237E-10 0 0 1 0 0 ""
  XDAT 15 -7.5632002E-11 0 0 1 0 0 ""
  XDAT 16 -2.8646816E-12 0 0 1 0 0 ""
  XDAT 17 7.4736294E-13 0 0 1 0 0 ""
  XDAT 18 -5.0468383E-16 0 0 1 0 0 ""
  XDAT 19 -3.7482823E-15 0 0 1 0 0 ""
  XDAT 20 8.0823827E-17 0 0 1 0 0 ""
  XDAT 21 7.8330549E-18 0 0 1 0 0 ""
  XDAT 22 -2.7827820E-19 0 0 1 0 0 ""
  DISZ  8.806
  CONI  9.635854
  DIAM  11.2 1 0 0 1 ""
  POPS 0 0 0 0 0 0 0 0 1 1 1 1 0 0 0 0
SURF 17
  TYPE STANDARD
  CURV 0 0 0 0 0
  HIDE 0 0 0 0 0 0 0 0 0 0
  MIRR 2 0
  DISZ  2.85
  GLAS  ___BLANK 1 0 1.51680 64.20 0 0 0 0 0 0
  DIAM  13.74 1 0 0 1 ""
  POPS 0 0 0 0 0 0 0 0 1 1 1 1 0 0 0 0
SURF 18
  TYPE STANDARD
  CURV 0 0 0 0 0
  HIDE 0 0 0 0 0 0 0 0 0 0
  MIRR 2 0
  DISZ  1.787
  DIAM  13.74 1 0 0 1 ""
  POPS 0 0 0 0 0 0 0 0 1 1 1 1 0 0 0 0
SURF 19
  TYPE STANDARD
  CURV 0.0 0 0 0 0 ""
  HIDE 0 0 0 0 0 0 0 0 0 0
  MIRR 2 0
  DISZ 0
  DIAM 14.2 1 0 0 1 ""
  POPS 0 0 0 0 0 0 0 0 1 1 1 1 0 0 0 0
TOL TOFF   0   0              0              0   0 0 0 0
MNUM 1 1
