VERS 161019 507 33785
MODE SEQ
NAME US 2021/0231927 Example 3 (Fujifilm Fujinon XF50mm F1.0 R WR)
NOTE 0 Prepared and converted by Bill Claff.
PFIL 0 0 0
LANG 0
UNIT MM X W X CM MR CPMM
FLOA
ENVD 20 1 0
GFAC 0 0
RAIM 0 2 1 1 0 1 0 0 0
SDMA 0 1 0
FTYP 3 0 3 3 0 0 0
ROPD 2
HYPR 0
PICB 1
XFLN 0 0 0 0 0 0 0 0 0 0 0 0
YFLN 0 9.94 14.2 0 0 0 0 0 0 0 0 0 0
FWGN 1 1 1 1 1 1 1 1 1 1 1 1
VDXN 0 0 0 0 0 0 0 0 0 0 0 0
VDYN 0 0 0 0 0 0 0 0 0 0 0 0
VCXN 0 0 0 0 0 0 0 0 0 0 0 0
VCYN 0 0 0 0 0 0 0 0 0 0 0 0
VANN 0 0 0 0 0 0 0 0 0 0 0 0
WAVM 1 0.4861327 1
WAVM 2 0.5875618 1
WAVM 3 0.6562725 1
WAVM 4 0.550 1
WAVM 5 0.550 1
WAVM 6 0.550 1
WAVM 7 0.550 1
WAVM 8 0.550 1
WAVM 9 0.550 1
WAVM 10 0.550 1
WAVM 11 0.550 1
WAVM 12 0.550 1
WAVM 13 0.550 1
WAVM 14 0.550 1
WAVM 15 0.550 1
WAVM 16 0.550 1
WAVM 17 0.550 1
WAVM 18 0.550 1
WAVM 19 0.550 1
WAVM 20 0.550 1
WAVM 21 0.550 1
WAVM 22 0.550 1
WAVM 23 0.550 1
WAVM 24 0.550 1
PWAV 2
POLS 1 0 1 0 0 1 0
GSTD 0 100 100 100 100 100 100 0 1 1 0 0 1 1 1 1 1 1
NSCD 100 500 0 1.0E-3 5 1.0E-6 0 0 0 0 0 0 1000000 0 2
SURF 0
  TYPE STANDARD
  CURV 0.0 0 0 0 0 ""
  HIDE 0 0 0 0 0 0 0 0 0 0
  MIRR 2 0
  DISZ INFINITY
  DIAM 0 1 0 0 1 ""
  POPS 0 0 0 0 0 0 0 0 1 1 1 1 0 0 0 0
SURF 1
  TYPE STANDARD
  CURV -0.00721353588268829 0 0 0 0
  HIDE 0 0 0 0 0 0 0 0 0 0
  MIRR 2 0
  DISZ  2.4
  GLAS  ___BLANK 1 0 1.54072 47.23 0 0 0 0 0 0
  DIAM  30.58 1 0 0 1 ""
  POPS 0 0 0 0 0 0 0 0 1 1 1 1 0 0 0 0
SURF 2
  TYPE STANDARD
  CURV 0.0170773105216896 0 0 0 0
  HIDE 0 0 0 0 0 0 0 0 0 0
  MIRR 2 0
  DISZ  10.03
  DIAM  28.59 1 0 0 1 ""
  POPS 0 0 0 0 0 0 0 0 1 1 1 1 0 0 0 0
SURF 3
  TYPE STANDARD
  CURV 0.0131758971731903 0 0 0 0
  HIDE 0 0 0 0 0 0 0 0 0 0
  MIRR 2 0
  DISZ  11.8
  GLAS  ___BLANK 1 0 1.59282 68.62 0 0 0 0 0 0
  DIAM  29.94 1 0 0 1 ""
  POPS 0 0 0 0 0 0 0 0 1 1 1 1 0 0 0 0
SURF 4
  TYPE STANDARD
  CURV -0.00952266952422934 0 0 0 0
  HIDE 0 0 0 0 0 0 0 0 0 0
  MIRR 2 0
  DISZ  0.2
  DIAM  29.94 1 0 0 1 ""
  POPS 0 0 0 0 0 0 0 0 1 1 1 1 0 0 0 0
SURF 5
  TYPE STANDARD
  CURV 0.0219974474162018 0 0 0 0
  HIDE 0 0 0 0 0 0 0 0 0 0
  MIRR 2 0
  DISZ  10.8
  GLAS  ___BLANK 1 0 1.59282 68.62 0 0 0 0 0 0
  DIAM  28.87 1 0 0 1 ""
  POPS 0 0 0 0 0 0 0 0 1 1 1 1 0 0 0 0
SURF 6
  TYPE STANDARD
  CURV 0.00250491947397793 0 0 0 0
  HIDE 0 0 0 0 0 0 0 0 0 0
  MIRR 2 0
  DISZ  0.6
  DIAM  28.87 1 0 0 1 ""
  POPS 0 0 0 0 0 0 0 0 1 1 1 1 0 0 0 0
SURF 7
  TYPE STANDARD
  CURV 0.022245149556365 0 0 0 0
  HIDE 0 0 0 0 0 0 0 0 0 0
  MIRR 2 0
  DISZ  4.32
  GLAS  ___BLANK 1 0 1.95906 17.47 0 0 0 0 0 0
  DIAM  25.24 1 0 0 1 ""
  POPS 0 0 0 0 0 0 0 0 1 1 1 1 0 0 0 0
SURF 8
  TYPE STANDARD
  CURV 0.0156621560179407 0 0 0 0
  HIDE 0 0 0 0 0 0 0 0 0 0
  MIRR 2 0
  DISZ  0.6
  DIAM  24.28 1 0 0 1 ""
  POPS 0 0 0 0 0 0 0 0 1 1 1 1 0 0 0 0
SURF 9
  TYPE STANDARD
  CURV 0.0276801514215003 0 0 0 0
  HIDE 0 0 0 0 0 0 0 0 0 0
  MIRR 2 0
  DISZ  5.27
  GLAS  ___BLANK 1 0 1.78800 47.52 0 0 0 0 0 0
  DIAM  22.36 1 0 0 1 ""
  POPS 0 0 0 0 0 0 0 0 1 1 1 1 0 0 0 0
SURF 10
  TYPE STANDARD
  CURV 0.0166176446150523 0 0 0 0
  HIDE 0 0 0 0 0 0 0 0 0 0
  MIRR 2 0
  DISZ  1.8
  GLAS  ___BLANK 1 0 1.89286 20.36 0 0 0 0 0 0
  DIAM  22.36 1 0 0 1 ""
  POPS 0 0 0 0 0 0 0 0 1 1 1 1 0 0 0 0
SURF 11
  TYPE STANDARD
  CURV 0.031589238809907 0 0 0 0
  HIDE 0 0 0 0 0 0 0 0 0 0
  MIRR 2 0
  DISZ  4.565
  DIAM  17.755 1 0 0 1 ""
  POPS 0 0 0 0 0 0 0 0 1 1 1 1 0 0 0 0
SURF 12
  TYPE STANDARD
  CURV 0.00564576005960116 0 0 0 0
  HIDE 0 0 0 0 0 0 0 0 0 0
  MIRR 2 0
  DISZ  1.52
  GLAS  ___BLANK 1 0 1.80809 22.76 0 0 0 0 0 0
  DIAM  19.16 1 0 0 1 ""
  POPS 0 0 0 0 0 0 0 0 1 1 1 1 0 0 0 0
SURF 13
  TYPE STANDARD
  CURV 0.0358921827543805 0 0 0 0
  HIDE 0 0 0 0 0 0 0 0 0 0
  MIRR 2 0
  DISZ  6.406
  DIAM  15.45 1 0 0 1 ""
  POPS 0 0 0 0 0 0 0 0 1 1 1 1 0 0 0 0
SURF 14
  STOP
  TYPE STANDARD
  CURV 0 0 0 0 0
  HIDE 0 0 0 0 0 0 0 0 0 0
  MIRR 2 0
  DISZ  11.466
  DIAM  14.485 1 0 0 1 ""
  POPS 0 0 0 0 0 0 0 0 1 1 1 1 0 0 0 0
SURF 15
  TYPE XOSPHERE
  CURV -0.068284368888549 0 0 0 0
  HIDE 0 0 0 0 0 0 0 0 0 0
  MIRR 2 0
  XDAT 1 20 0 0 1 0 0 ""
  XDAT 2 1 0 0 1 0 0 ""
  XDAT 3 0 0 0 1 0 0 ""
  XDAT 4 0 0 0 1 0 0 ""
  XDAT 5 0 0 0 1 0 0 ""
  XDAT 6 5.0823068E-05 0 0 1 0 0 ""
  XDAT 7 5.6696216E-06 0 0 1 0 0 ""
  XDAT 8 -1.1665918E-06 0 0 1 0 0 ""
  XDAT 9 2.3011235E-07 0 0 1 0 0 ""
  XDAT 10 -8.5462646E-09 0 0 1 0 0 ""
  XDAT 11 -3.9871990E-09 0 0 1 0 0 ""
  XDAT 12 5.8946218E-10 0 0 1 0 0 ""
  XDAT 13 6.8551648E-12 0 0 1 0 0 ""
  XDAT 14 -7.4371184E-12 0 0 1 0 0 ""
  XDAT 15 3.9451971E-13 0 0 1 0 0 ""
  XDAT 16 3.7621265E-14 0 0 1 0 0 ""
  XDAT 17 -4.2785117E-15 0 0 1 0 0 ""
  XDAT 18 -2.5668735E-17 0 0 1 0 0 ""
  XDAT 19 1.8252095E-17 0 0 1 0 0 ""
  XDAT 20 -4.3536351E-19 0 0 1 0 0 ""
  XDAT 21 -2.9072588E-20 0 0 1 0 0 ""
  XDAT 22 1.1528202E-21 0 0 1 0 0 ""
  DISZ  2.55
  CONI  0
  GLAS  ___BLANK 1 0 1.68863 31.20 0 0 0 0 0 0
  DIAM  12.76 1 0 0 1 ""
  POPS 0 0 0 0 0 0 0 0 1 1 1 1 0 0 0 0
SURF 16
  TYPE XOSPHERE
  CURV -0.053388629716752 0 0 0 0
  HIDE 0 0 0 0 0 0 0 0 0 0
  MIRR 2 0
  XDAT 1 20 0 0 1 0 0 ""
  XDAT 2 1 0 0 1 0 0 ""
  XDAT 3 0 0 0 1 0 0 ""
  XDAT 4 0 0 0 1 0 0 ""
  XDAT 5 0 0 0 1 0 0 ""
  XDAT 6 3.9661172E-05 0 0 1 0 0 ""
  XDAT 7 7.3155985E-06 0 0 1 0 0 ""
  XDAT 8 -1.9241870E-06 0 0 1 0 0 ""
  XDAT 9 2.0632606E-07 0 0 1 0 0 ""
  XDAT 10 2.7709406E-08 0 0 1 0 0 ""
  XDAT 11 -6.9926396E-09 0 0 1 0 0 ""
  XDAT 12 -2.2702122E-11 0 0 1 0 0 ""
  XDAT 13 9.8429055E-11 0 0 1 0 0 ""
  XDAT 14 -3.5432557E-12 0 0 1 0 0 ""
  XDAT 15 -7.7218349E-13 0 0 1 0 0 ""
  XDAT 16 4.3918443E-14 0 0 1 0 0 ""
  XDAT 17 3.5209637E-15 0 0 1 0 0 ""
  XDAT 18 -2.5005394E-16 0 0 1 0 0 ""
  XDAT 19 -8.7077803E-18 0 0 1 0 0 ""
  XDAT 20 7.1579377E-19 0 0 1 0 0 ""
  XDAT 21 9.0040531E-21 0 0 1 0 0 ""
  XDAT 22 -8.3059544E-22 0 0 1 0 0 ""
  DISZ  0.2
  CONI  0
  DIAM  14.79 1 0 0 1 ""
  POPS 0 0 0 0 0 0 0 0 1 1 1 1 0 0 0 0
SURF 17
  TYPE STANDARD
  CURV 0.0201366432336549 0 0 0 0
  HIDE 0 0 0 0 0 0 0 0 0 0
  MIRR 2 0
  DISZ  6.45
  GLAS  ___BLANK 1 0 1.88300 39.22 0 0 0 0 0 0
  DIAM  14.04 1 0 0 1 ""
  POPS 0 0 0 0 0 0 0 0 1 1 1 1 0 0 0 0
SURF 18
  TYPE STANDARD
  CURV -0.0307484164565525 0 0 0 0
  HIDE 0 0 0 0 0 0 0 0 0 0
  MIRR 2 0
  DISZ  1.21
  GLAS  ___BLANK 1 0 1.69895 30.05 0 0 0 0 0 0
  DIAM  14.995 1 0 0 1 ""
  POPS 0 0 0 0 0 0 0 0 1 1 1 1 0 0 0 0
SURF 19
  TYPE STANDARD
  CURV 0.0307484164565525 0 0 0 0
  HIDE 0 0 0 0 0 0 0 0 0 0
  MIRR 2 0
  DISZ  0.82
  DIAM  14.31 1 0 0 1 ""
  POPS 0 0 0 0 0 0 0 0 1 1 1 1 0 0 0 0
SURF 20
  TYPE STANDARD
  CURV 0.0236830562889409 0 0 0 0
  HIDE 0 0 0 0 0 0 0 0 0 0
  MIRR 2 0
  DISZ  8.8
  GLAS  ___BLANK 1 0 1.88300 39.22 0 0 0 0 0 0
  DIAM  15.525 1 0 0 1 ""
  POPS 0 0 0 0 0 0 0 0 1 1 1 1 0 0 0 0
SURF 21
  TYPE STANDARD
  CURV -0.0347777700493844 0 0 0 0
  HIDE 0 0 0 0 0 0 0 0 0 0
  MIRR 2 0
  DISZ  1.21
  GLAS  ___BLANK 1 0 1.62005 36.35 0 0 0 0 0 0
  DIAM  15 1 0 0 1 ""
  POPS 0 0 0 0 0 0 0 0 1 1 1 1 0 0 0 0
SURF 22
  TYPE STANDARD
  CURV -0.00561347003779493 0 0 0 0
  HIDE 0 0 0 0 0 0 0 0 0 0
  MIRR 2 0
  DISZ  14.401
  DIAM  15 1 0 0 1 ""
  POPS 0 0 0 0 0 0 0 0 1 1 1 1 0 0 0 0
SURF 23
  TYPE STANDARD
  CURV 0 0 0 0 0
  HIDE 0 0 0 0 0 0 0 0 0 0
  MIRR 2 0
  DISZ  2.85
  GLAS  ___BLANK 1 0 1.51680 64.20 0 0 0 0 0 0
  DIAM  14.26 1 0 0 1 ""
  POPS 0 0 0 0 0 0 0 0 1 1 1 1 0 0 0 0
SURF 24
  TYPE STANDARD
  CURV 0 0 0 0 0
  HIDE 0 0 0 0 0 0 0 0 0 0
  MIRR 2 0
  DISZ  1
  DIAM  14.26 1 0 0 1 ""
  POPS 0 0 0 0 0 0 0 0 1 1 1 1 0 0 0 0
SURF 25
  TYPE STANDARD
  CURV 0.0 0 0 0 0 ""
  HIDE 0 0 0 0 0 0 0 0 0 0
  MIRR 2 0
  DISZ 0
  DIAM 14.2 1 0 0 1 ""
  POPS 0 0 0 0 0 0 0 0 1 1 1 1 0 0 0 0
TOL TOFF   0   0              0              0   0 0 0 0
MNUM 2 1
SDIA   14   1 14.485 0 0 0 1 1 1 0 0
SDIA   14   2 12.884 0 0 0 1 1 1 0 0
THIC   0   1 1.00E+10 0 0 0 1 1 1 0 0
THIC   0   2 588.49 0 0 0 1 1 1 0 0
THIC   14   1 11.466 0 0 0 1 1 1 0 0
THIC   14   2 7.025 0 0 0 1 1 1 0 0
THIC   22   1 14.401 0 0 0 1 1 1 0 0
THIC   22   2 18.842 0 0 0 1 1 1 0 0
