VERS 161019 507 33785
MODE SEQ
NAME US 2016/0154221 Example 1 (Fujifilm Fujinon XF16-55mm F2.8 R LM WR)
NOTE 0 Prepared and converted by Bill Claff.
PFIL 0 0 0
LANG 0
UNIT MM X W X CM MR CPMM
FLOA
ENVD 20 1 0
GFAC 0 0
RAIM 0 2 1 1 0 1 0 0 0
SDMA 0 1 0
FTYP 3 0 3 3 0 0 0
ROPD 2
HYPR 0
PICB 1
XFLN 0 0 0 0 0 0 0 0 0 0 0 0
YFLN 0 9.94 14.2 0 0 0 0 0 0 0 0 0 0
FWGN 1 1 1 1 1 1 1 1 1 1 1 1
VDXN 0 0 0 0 0 0 0 0 0 0 0 0
VDYN 0 0 0 0 0 0 0 0 0 0 0 0
VCXN 0 0 0 0 0 0 0 0 0 0 0 0
VCYN 0 0 0 0 0 0 0 0 0 0 0 0
VANN 0 0 0 0 0 0 0 0 0 0 0 0
WAVM 1 0.4861327 1
WAVM 2 0.5875618 1
WAVM 3 0.6562725 1
WAVM 4 0.550 1
WAVM 5 0.550 1
WAVM 6 0.550 1
WAVM 7 0.550 1
WAVM 8 0.550 1
WAVM 9 0.550 1
WAVM 10 0.550 1
WAVM 11 0.550 1
WAVM 12 0.550 1
WAVM 13 0.550 1
WAVM 14 0.550 1
WAVM 15 0.550 1
WAVM 16 0.550 1
WAVM 17 0.550 1
WAVM 18 0.550 1
WAVM 19 0.550 1
WAVM 20 0.550 1
WAVM 21 0.550 1
WAVM 22 0.550 1
WAVM 23 0.550 1
WAVM 24 0.550 1
PWAV 2
POLS 1 0 1 0 0 1 0
GSTD 0 100 100 100 100 100 100 0 1 1 0 0 1 1 1 1 1 1
NSCD 100 500 0 1.0E-3 5 1.0E-6 0 0 0 0 0 0 1000000 0 2
SURF 0
  TYPE STANDARD
  CURV 0.0 0 0 0 0 ""
  HIDE 0 0 0 0 0 0 0 0 0 0
  MIRR 2 0
  DISZ INFINITY
  DIAM 0 1 0 0 1 ""
  POPS 0 0 0 0 0 0 0 0 1 1 1 1 0 0 0 0
SURF 1
  TYPE STANDARD
  CURV 0.0115996066341398 0 0 0 0
  HIDE 0 0 0 0 0 0 0 0 0 0
  MIRR 2 0
  DISZ  2.21
  GLAS  ___BLANK 1 0 1.84666 23.78 0 0 0 0 0 0
  DIAM  28.16 1 0 0 1 ""
  POPS 0 0 0 0 0 0 0 0 1 1 1 1 0 0 0 0
SURF 2
  TYPE STANDARD
  CURV 0.0183985869885193 0 0 0 0
  HIDE 0 0 0 0 0 0 0 0 0 0
  MIRR 2 0
  DISZ  6
  GLAS  ___BLANK 1 0 1.61800 63.33 0 0 0 0 0 0
  DIAM  26.25 1 0 0 1 ""
  POPS 0 0 0 0 0 0 0 0 1 1 1 1 0 0 0 0
SURF 3
  TYPE STANDARD
  CURV 0.00717814438794368 0 0 0 0
  HIDE 0 0 0 0 0 0 0 0 0 0
  MIRR 2 0
  DISZ  0.1
  DIAM  26.25 1 0 0 1 ""
  POPS 0 0 0 0 0 0 0 0 1 1 1 1 0 0 0 0
SURF 4
  TYPE STANDARD
  CURV 0.0187995756559783 0 0 0 0
  HIDE 0 0 0 0 0 0 0 0 0 0
  MIRR 2 0
  DISZ  6.34
  GLAS  ___BLANK 1 0 1.75500 52.32 0 0 0 0 0 0
  DIAM  25.29 1 0 0 1 ""
  POPS 0 0 0 0 0 0 0 0 1 1 1 1 0 0 0 0
SURF 5
  TYPE STANDARD
  CURV 0.00498588321954634 0 0 0 0
  HIDE 0 0 0 0 0 0 0 0 0 0
  MIRR 2 0
  DISZ  0.8
  DIAM  25.29 1 0 0 1 ""
  POPS 0 0 0 0 0 0 0 0 1 1 1 1 0 0 0 0
SURF 6
  TYPE XOSPHERE
  CURV 0.00704639501498557 0 0 0 0
  HIDE 0 0 0 0 0 0 0 0 0 0
  MIRR 2 0
  XDAT 1 16 0 0 1 0 0 ""
  XDAT 2 1 0 0 1 0 0 ""
  XDAT 3 0 0 0 1 0 0 ""
  XDAT 4 0 0 0 1 0 0 ""
  XDAT 5 0 0 0 1 0 0 ""
  XDAT 6 -2.6826923E-05 0 0 1 0 0 ""
  XDAT 7 4.7863658E-06 0 0 1 0 0 ""
  XDAT 8 -1.8421337E-07 0 0 1 0 0 ""
  XDAT 9 -1.8337031E-08 0 0 1 0 0 ""
  XDAT 10 1.6991972E-09 0 0 1 0 0 ""
  XDAT 11 4.0861337E-11 0 0 1 0 0 ""
  XDAT 12 -7.8511430E-12 0 0 1 0 0 ""
  XDAT 13 -4.3078650E-14 0 0 1 0 0 ""
  XDAT 14 2.3184894E-14 0 0 1 0 0 ""
  XDAT 15 4.1106169E-17 0 0 1 0 0 ""
  XDAT 16 -4.8125491E-17 0 0 1 0 0 ""
  XDAT 17 3.8585298E-19 0 0 1 0 0 ""
  XDAT 18 2.7390609E-20 0 0 1 0 0 ""
  DISZ  1.4
  CONI  0
  GLAS  ___BLANK 1 0 1.85135 40.10 0 0 0 0 0 0
  DIAM  17.37 1 0 0 1 ""
  POPS 0 0 0 0 0 0 0 0 1 1 1 1 0 0 0 0
SURF 7
  TYPE XOSPHERE
  CURV 0.0741965258218749 0 0 0 0
  HIDE 0 0 0 0 0 0 0 0 0 0
  MIRR 2 0
  XDAT 1 16 0 0 1 0 0 ""
  XDAT 2 1 0 0 1 0 0 ""
  XDAT 3 0 0 0 1 0 0 ""
  XDAT 4 0 0 0 1 0 0 ""
  XDAT 5 0 0 0 1 0 0 ""
  XDAT 6 5.1722084E-05 0 0 1 0 0 ""
  XDAT 7 1.9249650E-05 0 0 1 0 0 ""
  XDAT 8 -4.6557231E-06 0 0 1 0 0 ""
  XDAT 9 6.8086230E-07 0 0 1 0 0 ""
  XDAT 10 -4.6108053E-08 0 0 1 0 0 ""
  XDAT 11 -1.7600435E-09 0 0 1 0 0 ""
  XDAT 12 4.5574120E-10 0 0 1 0 0 ""
  XDAT 13 -5.9515764E-12 0 0 1 0 0 ""
  XDAT 14 -1.9499420E-12 0 0 1 0 0 ""
  XDAT 15 1.9031053E-14 0 0 1 0 0 ""
  XDAT 16 5.4999737E-15 0 0 1 0 0 ""
  XDAT 17 1.9283343E-16 0 0 1 0 0 ""
  XDAT 18 -2.0233351E-17 0 0 1 0 0 ""
  DISZ  8.57
  CONI  -2.3833082
  DIAM  11.64 1 0 0 1 ""
  POPS 0 0 0 0 0 0 0 0 1 1 1 1 0 0 0 0
SURF 8
  TYPE STANDARD
  CURV -0.0310968286832172 0 0 0 0
  HIDE 0 0 0 0 0 0 0 0 0 0
  MIRR 2 0
  DISZ  1.01
  GLAS  ___BLANK 1 0 1.69680 55.53 0 0 0 0 0 0
  DIAM  11.64 1 0 0 1 ""
  POPS 0 0 0 0 0 0 0 0 1 1 1 1 0 0 0 0
SURF 9
  TYPE STANDARD
  CURV 0.0555895269331258 0 0 0 0
  HIDE 0 0 0 0 0 0 0 0 0 0
  MIRR 2 0
  DISZ  7.5
  GLAS  ___BLANK 1 0 1.90366 31.31 0 0 0 0 0 0
  DIAM  11.64 1 0 0 1 ""
  POPS 0 0 0 0 0 0 0 0 1 1 1 1 0 0 0 0
SURF 10
  TYPE STANDARD
  CURV -0.0251790545516806 0 0 0 0
  HIDE 0 0 0 0 0 0 0 0 0 0
  MIRR 2 0
  DISZ  1.38
  DIAM  11.64 1 0 0 1 ""
  POPS 0 0 0 0 0 0 0 0 1 1 1 1 0 0 0 0
SURF 11
  TYPE STANDARD
  CURV -0.0462023515148827 0 0 0 0
  HIDE 0 0 0 0 0 0 0 0 0 0
  MIRR 2 0
  DISZ  1
  GLAS  ___BLANK 1 0 1.72916 54.68 0 0 0 0 0 0
  DIAM  10.14 1 0 0 1 ""
  POPS 0 0 0 0 0 0 0 0 1 1 1 1 0 0 0 0
SURF 12
  TYPE STANDARD
  CURV -0.0176401843399264 0 0 0 0
  HIDE 0 0 0 0 0 0 0 0 0 0
  MIRR 2 0
  DISZ  19.89
  DIAM  13.48 1 0 0 1 ""
  POPS 0 0 0 0 0 0 0 0 1 1 1 1 0 0 0 0
SURF 13
  TYPE XOSPHERE
  CURV 0.0361463507909364 0 0 0 0
  HIDE 0 0 0 0 0 0 0 0 0 0
  MIRR 2 0
  XDAT 1 12 0 0 1 0 0 ""
  XDAT 2 1 0 0 1 0 0 ""
  XDAT 3 0 0 0 1 0 0 ""
  XDAT 4 0 0 0 1 0 0 ""
  XDAT 5 0 0 0 1 0 0 ""
  XDAT 6 4.1332336E-06 0 0 1 0 0 ""
  XDAT 7 -8.6972277E-06 0 0 1 0 0 ""
  XDAT 8 1.5350565E-06 0 0 1 0 0 ""
  XDAT 9 -7.8404429E-08 0 0 1 0 0 ""
  XDAT 10 -7.4982002E-09 0 0 1 0 0 ""
  XDAT 11 8.8156832E-10 0 0 1 0 0 ""
  XDAT 12 -9.4816394E-12 0 0 1 0 0 ""
  XDAT 13 -6.2840110E-13 0 0 1 0 0 ""
  XDAT 14 -2.4248166E-14 0 0 1 0 0 ""
  DISZ  4
  CONI  0
  GLAS  ___BLANK 1 0 1.68458 30.88 0 0 0 0 0 0
  DIAM  11.3 1 0 0 1 ""
  POPS 0 0 0 0 0 0 0 0 1 1 1 1 0 0 0 0
SURF 14
  TYPE XOSPHERE
  CURV -0.00127012058347003 0 0 0 0
  HIDE 0 0 0 0 0 0 0 0 0 0
  MIRR 2 0
  XDAT 1 12 0 0 1 0 0 ""
  XDAT 2 1 0 0 1 0 0 ""
  XDAT 3 0 0 0 1 0 0 ""
  XDAT 4 0 0 0 1 0 0 ""
  XDAT 5 0 0 0 1 0 0 ""
  XDAT 6 1.0143172E-05 0 0 1 0 0 ""
  XDAT 7 -6.3304378E-06 0 0 1 0 0 ""
  XDAT 8 8.2811414E-07 0 0 1 0 0 ""
  XDAT 9 1.0571100E-08 0 0 1 0 0 ""
  XDAT 10 -6.8812553E-09 0 0 1 0 0 ""
  XDAT 11 -2.0359431E-10 0 0 1 0 0 ""
  XDAT 12 6.3325383E-11 0 0 1 0 0 ""
  XDAT 13 -3.4680139E-14 0 0 1 0 0 ""
  XDAT 14 -1.5600198E-13 0 0 1 0 0 ""
  DISZ  2
  CONI  0
  DIAM  11.3 1 0 0 1 ""
  POPS 0 0 0 0 0 0 0 0 1 1 1 1 0 0 0 0
SURF 15
  STOP
  TYPE STANDARD
  CURV 0 0 0 0 0
  HIDE 0 0 0 0 0 0 0 0 0 0
  MIRR 2 0
  DISZ  3.44
  DIAM  7.1665 1 0 0 1 ""
  POPS 0 0 0 0 0 0 0 0 1 1 1 1 0 0 0 0
SURF 16
  TYPE STANDARD
  CURV 0.0278862786402539 0 0 0 0
  HIDE 0 0 0 0 0 0 0 0 0 0
  MIRR 2 0
  DISZ  1.01
  GLAS  ___BLANK 1 0 1.84666 23.78 0 0 0 0 0 0
  DIAM  11.78 1 0 0 1 ""
  POPS 0 0 0 0 0 0 0 0 1 1 1 1 0 0 0 0
SURF 17
  TYPE STANDARD
  CURV 0.0627943485086342 0 0 0 0
  HIDE 0 0 0 0 0 0 0 0 0 0
  MIRR 2 0
  DISZ  6.28
  GLAS  ___BLANK 1 0 1.53775 74.70 0 0 0 0 0 0
  DIAM  10.07 1 0 0 1 ""
  POPS 0 0 0 0 0 0 0 0 1 1 1 1 0 0 0 0
SURF 18
  TYPE STANDARD
  CURV -0.0207497507436192 0 0 0 0
  HIDE 0 0 0 0 0 0 0 0 0 0
  MIRR 2 0
  DISZ  0.5
  DIAM  10.07 1 0 0 1 ""
  POPS 0 0 0 0 0 0 0 0 1 1 1 1 0 0 0 0
SURF 19
  TYPE STANDARD
  CURV 0.00252196715354672 0 0 0 0
  HIDE 0 0 0 0 0 0 0 0 0 0
  MIRR 2 0
  DISZ  3.51
  GLAS  ___BLANK 1 0 1.49700 81.54 0 0 0 0 0 0
  DIAM  10 1 0 0 1 ""
  POPS 0 0 0 0 0 0 0 0 1 1 1 1 0 0 0 0
SURF 20
  TYPE STANDARD
  CURV -0.0252665622315428 0 0 0 0
  HIDE 0 0 0 0 0 0 0 0 0 0
  MIRR 2 0
  DISZ  0.8
  GLAS  ___BLANK 1 0 1.79952 42.22 0 0 0 0 0 0
  DIAM  10 1 0 0 1 ""
  POPS 0 0 0 0 0 0 0 0 1 1 1 1 0 0 0 0
SURF 21
  TYPE STANDARD
  CURV 0.0312935077550006 0 0 0 0
  HIDE 0 0 0 0 0 0 0 0 0 0
  MIRR 2 0
  DISZ  1.81
  DIAM  10 1 0 0 1 ""
  POPS 0 0 0 0 0 0 0 0 1 1 1 1 0 0 0 0
SURF 22
  TYPE XOSPHERE
  CURV 0.0484883278897104 0 0 0 0
  HIDE 0 0 0 0 0 0 0 0 0 0
  MIRR 2 0
  XDAT 1 16 0 0 1 0 0 ""
  XDAT 2 1 0 0 1 0 0 ""
  XDAT 3 0 0 0 1 0 0 ""
  XDAT 4 0 0 0 1 0 0 ""
  XDAT 5 0 0 0 1 0 0 ""
  XDAT 6 -4.8240511E-05 0 0 1 0 0 ""
  XDAT 7 5.2748685E-06 0 0 1 0 0 ""
  XDAT 8 -6.2154451E-07 0 0 1 0 0 ""
  XDAT 9 -4.8032329E-08 0 0 1 0 0 ""
  XDAT 10 1.3275405E-08 0 0 1 0 0 ""
  XDAT 11 6.1331416E-10 0 0 1 0 0 ""
  XDAT 12 -2.2421975E-10 0 0 1 0 0 ""
  XDAT 13 -3.4333485E-12 0 0 1 0 0 ""
  XDAT 14 2.2269472E-12 0 0 1 0 0 ""
  XDAT 15 2.2654836E-14 0 0 1 0 0 ""
  XDAT 16 -1.4106854E-14 0 0 1 0 0 ""
  XDAT 17 -1.1949080E-16 0 0 1 0 0 ""
  XDAT 18 4.6802864E-17 0 0 1 0 0 ""
  DISZ  5.76
  CONI  0
  GLAS  ___BLANK 1 0 1.61882 63.58 0 0 0 0 0 0
  DIAM  10.48 1 0 0 1 ""
  POPS 0 0 0 0 0 0 0 0 1 1 1 1 0 0 0 0
SURF 23
  TYPE XOSPHERE
  CURV -0.037182143795992 0 0 0 0
  HIDE 0 0 0 0 0 0 0 0 0 0
  MIRR 2 0
  XDAT 1 16 0 0 1 0 0 ""
  XDAT 2 1 0 0 1 0 0 ""
  XDAT 3 0 0 0 1 0 0 ""
  XDAT 4 0 0 0 1 0 0 ""
  XDAT 5 0 0 0 1 0 0 ""
  XDAT 6 -4.3314253E-07 0 0 1 0 0 ""
  XDAT 7 1.6554907E-06 0 0 1 0 0 ""
  XDAT 8 5.7603232E-07 0 0 1 0 0 ""
  XDAT 9 -2.3889843E-07 0 0 1 0 0 ""
  XDAT 10 2.0442912E-08 0 0 1 0 0 ""
  XDAT 11 2.1682367E-09 0 0 1 0 0 ""
  XDAT 12 -3.8023797E-10 0 0 1 0 0 ""
  XDAT 13 -5.6322606E-12 0 0 1 0 0 ""
  XDAT 14 2.8361883E-12 0 0 1 0 0 ""
  XDAT 15 9.7304729E-15 0 0 1 0 0 ""
  XDAT 16 -1.0948330E-14 0 0 1 0 0 ""
  XDAT 17 -5.6980089E-16 0 0 1 0 0 ""
  XDAT 18 6.3788931E-17 0 0 1 0 0 ""
  DISZ  2
  CONI  0
  DIAM  10.48 1 0 0 1 ""
  POPS 0 0 0 0 0 0 0 0 1 1 1 1 0 0 0 0
SURF 24
  TYPE STANDARD
  CURV 0 0 0 0 0
  HIDE 0 0 0 0 0 0 0 0 0 0
  MIRR 2 0
  DISZ  0.8
  GLAS  ___BLANK 1 0 1.61800 63.33 0 0 0 0 0 0
  DIAM  10.89 1 0 0 1 ""
  POPS 0 0 0 0 0 0 0 0 1 1 1 1 0 0 0 0
SURF 25
  TYPE STANDARD
  CURV 0.0451863643819387 0 0 0 0
  HIDE 0 0 0 0 0 0 0 0 0 0
  MIRR 2 0
  DISZ  2.05
  DIAM  9.265 1 0 0 1 ""
  POPS 0 0 0 0 0 0 0 0 1 1 1 1 0 0 0 0
SURF 26
  TYPE STANDARD
  CURV 0 0 0 0 0
  HIDE 0 0 0 0 0 0 0 0 0 0
  MIRR 2 0
  DISZ  0.81
  GLAS  ___BLANK 1 0 1.84666 23.78 0 0 0 0 0 0
  DIAM  9.265 1 0 0 1 ""
  POPS 0 0 0 0 0 0 0 0 1 1 1 1 0 0 0 0
SURF 27
  TYPE STANDARD
  CURV 0.0217466945024356 0 0 0 0
  HIDE 0 0 0 0 0 0 0 0 0 0
  MIRR 2 0
  DISZ  2.54
  GLAS  ___BLANK 1 0 1.49700 81.54 0 0 0 0 0 0
  DIAM  9.66 1 0 0 1 ""
  POPS 0 0 0 0 0 0 0 0 1 1 1 1 0 0 0 0
SURF 28
  TYPE STANDARD
  CURV -0.00823865471336732 0 0 0 0
  HIDE 0 0 0 0 0 0 0 0 0 0
  MIRR 2 0
  DISZ  2.6
  DIAM  9.66 1 0 0 1 ""
  POPS 0 0 0 0 0 0 0 0 1 1 1 1 0 0 0 0
SURF 29
  TYPE STANDARD
  CURV 0.00321878876528132 0 0 0 0
  HIDE 0 0 0 0 0 0 0 0 0 0
  MIRR 2 0
  DISZ  3
  GLAS  ___BLANK 1 0 1.95906 17.47 0 0 0 0 0 0
  DIAM  13.66 1 0 0 1 ""
  POPS 0 0 0 0 0 0 0 0 1 1 1 1 0 0 0 0
SURF 30
  TYPE STANDARD
  CURV -0.0124705290222881 0 0 0 0
  HIDE 0 0 0 0 0 0 0 0 0 0
  MIRR 2 0
  DISZ  19.63
  DIAM  13.66 1 0 0 1 ""
  POPS 0 0 0 0 0 0 0 0 1 1 1 1 0 0 0 0
SURF 31
  TYPE STANDARD
  CURV 0 0 0 0 0
  HIDE 0 0 0 0 0 0 0 0 0 0
  MIRR 2 0
  DISZ  2.15
  GLAS  ___BLANK 1 0 1.54763 54.98 0 0 0 0 0 0
  DIAM  14.2 1 0 0 1 ""
  POPS 0 0 0 0 0 0 0 0 1 1 1 1 0 0 0 0
SURF 32
  TYPE STANDARD
  CURV 0 0 0 0 0
  HIDE 0 0 0 0 0 0 0 0 0 0
  MIRR 2 0
  DISZ  0.7
  GLAS  ___BLANK 1 0 1.49784 54.98 0 0 0 0 0 0
  DIAM  14.2 1 0 0 1 ""
  POPS 0 0 0 0 0 0 0 0 1 1 1 1 0 0 0 0
SURF 33
  TYPE STANDARD
  CURV 0 0 0 0 0
  HIDE 0 0 0 0 0 0 0 0 0 0
  MIRR 2 0
  DISZ  0.513
  DIAM  14.2 1 0 0 1 ""
  POPS 0 0 0 0 0 0 0 0 1 1 1 1 0 0 0 0
SURF 34
  TYPE STANDARD
  CURV 0.0 0 0 0 0 ""
  HIDE 0 0 0 0 0 0 0 0 0 0
  MIRR 2 0
  DISZ 0
  DIAM 14.2 1 0 0 1 ""
  POPS 0 0 0 0 0 0 0 0 1 1 1 1 0 0 0 0
TOL TOFF   0   0              0              0   0 0 0 0
MNUM 3 1
SDIA   15   1 7.1665 0 0 0 1 1 1 0 0
SDIA   15   2 8.9895 0 0 0 1 1 1 0 0
SDIA   15   3 9.724 0 0 0 1 1 1 0 0
THIC   5   1 0.800 0 0 0 1 1 1 0 0
THIC   5   2 12.276 0 0 0 1 1 1 0 0
THIC   5   3 26.783 0 0 0 1 1 1 0 0
THIC   12   1 19.890 0 0 0 1 1 1 0 0
THIC   12   2 5.636 0 0 0 1 1 1 0 0
THIC   12   3 0.685 0 0 0 1 1 1 0 0
THIC   23   1 2.000 0 0 0 1 1 1 0 0
THIC   23   2 6.395 0 0 0 1 1 1 0 0
THIC   23   3 7.257 0 0 0 1 1 1 0 0
THIC   28   1 2.600 0 0 0 1 1 1 0 0
THIC   28   2 7.250 0 0 0 1 1 1 0 0
THIC   28   3 14.396 0 0 0 1 1 1 0 0
