VERS 161019 507 33785
MODE SEQ
NAME US 2015/0124127 Example 1 (Leica DC Vario-Summilux 4.7-17.7mm F1.4-2.3 (Panasonic LX7))
NOTE 0 Prepared and converted by Bill Claff.
PFIL 0 0 0
LANG 0
UNIT MM X W X CM MR CPMM
FNUM 1.46326 0
ENVD 20 1 0
GFAC 0 0
RAIM 0 2 1 1 0 1 0 0 0
SDMA 0 1 0
FTYP 3 0 3 3 0 0 0
ROPD 2
HYPR 0
PICB 1
XFLN 0 0 0 0 0 0 0 0 0 0 0 0
YFLN 0 2.6747 3.821 0 0 0 0 0 0 0 0 0 0
FWGN 1 1 1 1 1 1 1 1 1 1 1 1
VDXN 0 0 0 0 0 0 0 0 0 0 0 0
VDYN 0 0 0 0 0 0 0 0 0 0 0 0
VCXN 0 0 0 0 0 0 0 0 0 0 0 0
VCYN 0 0 0 0 0 0 0 0 0 0 0 0
VANN 0 0 0 0 0 0 0 0 0 0 0 0
WAVM 1 0.4861327 1
WAVM 2 0.5875618 1
WAVM 3 0.6562725 1
WAVM 4 0.550 1
WAVM 5 0.550 1
WAVM 6 0.550 1
WAVM 7 0.550 1
WAVM 8 0.550 1
WAVM 9 0.550 1
WAVM 10 0.550 1
WAVM 11 0.550 1
WAVM 12 0.550 1
WAVM 13 0.550 1
WAVM 14 0.550 1
WAVM 15 0.550 1
WAVM 16 0.550 1
WAVM 17 0.550 1
WAVM 18 0.550 1
WAVM 19 0.550 1
WAVM 20 0.550 1
WAVM 21 0.550 1
WAVM 22 0.550 1
WAVM 23 0.550 1
WAVM 24 0.550 1
PWAV 2
POLS 1 0 1 0 0 1 0
GSTD 0 100 100 100 100 100 100 0 1 1 0 0 1 1 1 1 1 1
NSCD 100 500 0 1.0E-3 5 1.0E-6 0 0 0 0 0 0 1000000 0 2
SURF 0
  TYPE STANDARD
  CURV 0.0 0 0 0 0 ""
  HIDE 0 0 0 0 0 0 0 0 0 0
  MIRR 2 0
  DISZ INFINITY
  DIAM 0 1 0 0 1 ""
  POPS 0 0 0 0 0 0 0 0 1 1 1 1 0 0 0 0
SURF 1
  TYPE STANDARD
  CURV 0.00881482088724698 0 0 0 0
  HIDE 0 0 0 0 0 0 0 0 0 0
  MIRR 2 0
  DISZ  1.9
  GLAS  ___BLANK 1 0 1.83481 42.7 0 0 0 0 0 0
  DIAM  13.46 1 0 0 1 ""
  POPS 0 0 0 0 0 0 0 0 1 1 1 1 0 0 0 0
SURF 2
  TYPE STANDARD
  CURV -0.00336502627244262 0 0 0 0
  HIDE 0 0 0 0 0 0 0 0 0 0
  MIRR 2 0
  DISZ  0.3
  DIAM  13.46 1 0 0 1 ""
  POPS 0 0 0 0 0 0 0 0 1 1 1 1 0 0 0 0
SURF 3
  TYPE EVENASPH
  CURV 0.00892960790091707 0 0 0 0
  HIDE 0 0 0 0 0 0 0 0 0 0
  MIRR 2 0
  PARM 1 0
  PARM 2 -2.68650E-05
  PARM 3 -2.19939E-08
  PARM 4 1.71056E-09
  PARM 5 -1.61048E-11
  PARM 6 5.21813E-14
  PARM 7 0
  PARM 8 0
  DISZ  1
  CONI  0
  GLAS  ___BLANK 1 0 1.80500 41.0 0 0 0 0 0 0
  DIAM  10.78 1 0 0 1 ""
  POPS 0 0 0 0 0 0 0 0 1 1 1 1 0 0 0 0
SURF 4
  TYPE EVENASPH
  CURV 0.111187707087104 0 0 0 0
  HIDE 0 0 0 0 0 0 0 0 0 0
  MIRR 2 0
  PARM 1 0
  PARM 2 -7.46957E-05
  PARM 3 -4.34096E-07
  PARM 4 -1.13634E-08
  PARM 5 1.73729E-10
  PARM 6 -2.59994E-12
  PARM 7 0
  PARM 8 0
  DISZ  5.6842
  CONI  -0.143006
  DIAM  8.37 1 0 0 1 ""
  POPS 0 0 0 0 0 0 0 0 1 1 1 1 0 0 0 0
SURF 5
  TYPE STANDARD
  CURV -0.0340543780308396 0 0 0 0
  HIDE 0 0 0 0 0 0 0 0 0 0
  MIRR 2 0
  DISZ  0.5
  GLAS  ___BLANK 1 0 1.59282 68.6 0 0 0 0 0 0
  DIAM  8.37 1 0 0 1 ""
  POPS 0 0 0 0 0 0 0 0 1 1 1 1 0 0 0 0
SURF 6
  TYPE STANDARD
  CURV 0.0144484868099764 0 0 0 0
  HIDE 0 0 0 0 0 0 0 0 0 0
  MIRR 2 0
  DISZ  0.1
  DIAM  8.37 1 0 0 1 ""
  POPS 0 0 0 0 0 0 0 0 1 1 1 1 0 0 0 0
SURF 7
  TYPE STANDARD
  CURV 0.0426326514951271 0 0 0 0
  HIDE 0 0 0 0 0 0 0 0 0 0
  MIRR 2 0
  DISZ  1.73
  GLAS  ___BLANK 1 0 2.00272 19.3 0 0 0 0 0 0
  DIAM  8.51 1 0 0 1 ""
  POPS 0 0 0 0 0 0 0 0 1 1 1 1 0 0 0 0
SURF 8
  TYPE STANDARD
  CURV 0.0114013645153052 0 0 0 0
  HIDE 0 0 0 0 0 0 0 0 0 0
  MIRR 2 0
  DISZ  26.2611
  DIAM  8.51 1 0 0 1 ""
  POPS 0 0 0 0 0 0 0 0 1 1 1 1 0 0 0 0
SURF 9
  TYPE EVENASPH
  CURV 0.0830909846281678 0 0 0 0
  HIDE 0 0 0 0 0 0 0 0 0 0
  MIRR 2 0
  PARM 1 0
  PARM 2 -6.88003E-05
  PARM 3 1.27101E-06
  PARM 4 -5.27801E-08
  PARM 5 1.03956E-09
  PARM 6 0
  PARM 7 0
  PARM 8 0
  DISZ  2.52
  CONI  -0.0984634
  GLAS  ___BLANK 1 0 1.60602 57.4 0 0 0 0 0 0
  DIAM  6.07 1 0 0 1 ""
  POPS 0 0 0 0 0 0 0 0 1 1 1 1 0 0 0 0
SURF 10
  TYPE EVENASPH
  CURV -0.00799013059069438 0 0 0 0
  HIDE 0 0 0 0 0 0 0 0 0 0
  MIRR 2 0
  PARM 1 0
  PARM 2 9.49723E-06
  PARM 3 9.67297E-07
  PARM 4 -1.08421E-08
  PARM 5 -2.16963E-10
  PARM 6 1.44910E-11
  PARM 7 0
  PARM 8 0
  DISZ  1.7359
  CONI  0
  DIAM  6.07 1 0 0 1 ""
  POPS 0 0 0 0 0 0 0 0 1 1 1 1 0 0 0 0
SURF 11
  TYPE STANDARD
  CURV 0.104945008815381 0 0 0 0
  HIDE 0 0 0 0 0 0 0 0 0 0
  MIRR 2 0
  DISZ  1.88
  GLAS  ___BLANK 1 0 1.77250 49.6 0 0 0 0 0 0
  DIAM  5.18 1 0 0 1 ""
  POPS 0 0 0 0 0 0 0 0 1 1 1 1 0 0 0 0
SURF 12
  TYPE STANDARD
  CURV 0.0177669754567001 0 0 0 0
  HIDE 0 0 0 0 0 0 0 0 0 0
  MIRR 2 0
  DISZ  0.01
  GLAS  ___BLANK 1 0 1.56732 42.8 0 0 0 0 0 0
  DIAM  5.02 1 0 0 1 ""
  POPS 0 0 0 0 0 0 0 0 1 1 1 1 0 0 0 0
SURF 13
  TYPE STANDARD
  CURV 0.0177669754567001 0 0 0 0
  HIDE 0 0 0 0 0 0 0 0 0 0
  MIRR 2 0
  DISZ  0.3
  GLAS  ___BLANK 1 0 1.74077 27.8 0 0 0 0 0 0
  DIAM  5.02 1 0 0 1 ""
  POPS 0 0 0 0 0 0 0 0 1 1 1 1 0 0 0 0
SURF 14
  TYPE STANDARD
  CURV 0.144398076617619 0 0 0 0
  HIDE 0 0 0 0 0 0 0 0 0 0
  MIRR 2 0
  DISZ  2.86
  DIAM  4.46 1 0 0 1 ""
  POPS 0 0 0 0 0 0 0 0 1 1 1 1 0 0 0 0
SURF 15
  STOP
  TYPE STANDARD
  CURV 0 0 0 0 0
  HIDE 0 0 0 0 0 0 0 0 0 0
  MIRR 2 0
  DISZ  1.7
  DIAM  3.818 1 0 0 1 ""
  POPS 0 0 0 0 0 0 0 0 1 1 1 1 0 0 0 0
SURF 16
  TYPE STANDARD
  CURV -0.0869338433452143 0 0 0 0
  HIDE 0 0 0 0 0 0 0 0 0 0
  MIRR 2 0
  DISZ  0.4
  GLAS  ___BLANK 1 0 1.72825 28.3 0 0 0 0 0 0
  DIAM  4.16 1 0 0 1 ""
  POPS 0 0 0 0 0 0 0 0 1 1 1 1 0 0 0 0
SURF 17
  TYPE STANDARD
  CURV -0.0281628261959344 0 0 0 0
  HIDE 0 0 0 0 0 0 0 0 0 0
  MIRR 2 0
  DISZ  0.1
  DIAM  4.62 1 0 0 1 ""
  POPS 0 0 0 0 0 0 0 0 1 1 1 1 0 0 0 0
SURF 18
  TYPE EVENASPH
  CURV 0.0527303790259644 0 0 0 0
  HIDE 0 0 0 0 0 0 0 0 0 0
  MIRR 2 0
  PARM 1 0
  PARM 2 -2.43602E-04
  PARM 3 6.65996E-06
  PARM 4 -9.91789E-07
  PARM 5 4.96802E-08
  PARM 6 -1.47067E-09
  PARM 7 4.75724E-12
  PARM 8 0
  DISZ  2.6223
  CONI  0
  GLAS  ___BLANK 1 0 1.55189 71.5 0 0 0 0 0 0
  DIAM  5.04 1 0 0 1 ""
  POPS 0 0 0 0 0 0 0 0 1 1 1 1 0 0 0 0
SURF 19
  TYPE EVENASPH
  CURV -0.0961871417028972 0 0 0 0
  HIDE 0 0 0 0 0 0 0 0 0 0
  MIRR 2 0
  PARM 1 0
  PARM 2 5.29678E-05
  PARM 3 -5.32716E-06
  PARM 4 8.32304E-07
  PARM 5 -8.45390E-08
  PARM 6 3.34839E-09
  PARM 7 -5.97550E-11
  PARM 8 0
  DISZ  2.7795
  CONI  0
  DIAM  5.04 1 0 0 1 ""
  POPS 0 0 0 0 0 0 0 0 1 1 1 1 0 0 0 0
SURF 20
  TYPE XASPHERE
  CURV 0.0617768250418538 0 0 0 0
  HIDE 0 0 0 0 0 0 0 0 0 0
  MIRR 2 0
  PARM 1 0
  PARM 2 -2.21595E-04
  PARM 3 1.39952E-05
  PARM 4 -1.04586E-06
  PARM 5 6.11792E-08
  PARM 6 -1.38011E-09
  PARM 7 -1.50683E-11
  PARM 8 1.00919E-12
  DISZ  1.47
  CONI  0
  GLAS  ___BLANK 1 0 1.68400 31.3 0 0 0 0 0 0
  DIAM  5.2 1 0 0 1 ""
  POPS 0 0 0 0 0 0 0 0 1 1 1 1 0 0 0 0
SURF 21
  TYPE XASPHERE
  CURV 0.0065781943382797 0 0 0 0
  HIDE 0 0 0 0 0 0 0 0 0 0
  MIRR 2 0
  PARM 1 0
  PARM 2 -2.80965E-04
  PARM 3 9.08046E-06
  PARM 4 -3.10430E-07
  PARM 5 2.64379E-08
  PARM 6 -7.01895E-10
  PARM 7 -1.88682E-11
  PARM 8 1.10060E-12
  DISZ  4.419
  CONI  0
  DIAM  5.2 1 0 0 1 ""
  POPS 0 0 0 0 0 0 0 0 1 1 1 1 0 0 0 0
SURF 22
  TYPE XASPHERE
  CURV -0.0687682235792485 0 0 0 0
  HIDE 0 0 0 0 0 0 0 0 0 0
  MIRR 2 0
  PARM 1 0
  PARM 2 -7.92215E-04
  PARM 3 6.88113E-05
  PARM 4 -2.88618E-06
  PARM 5 7.75972E-08
  PARM 6 -8.87695E-10
  PARM 7 -2.47039E-17
  PARM 8 -1.82676E-19
  DISZ  0.6
  CONI  0
  GLAS  ___BLANK 1 0 1.63550 23.9 0 0 0 0 0 0
  DIAM  4.18 1 0 0 1 ""
  POPS 0 0 0 0 0 0 0 0 1 1 1 1 0 0 0 0
SURF 23
  TYPE STANDARD
  CURV -0.0196979516100121 0 0 0 0
  HIDE 0 0 0 0 0 0 0 0 0 0
  MIRR 2 0
  DISZ  0.4
  DIAM  4.62 1 0 0 1 ""
  POPS 0 0 0 0 0 0 0 0 1 1 1 1 0 0 0 0
SURF 24
  TYPE STANDARD
  CURV 0 0 0 0 0
  HIDE 0 0 0 0 0 0 0 0 0 0
  MIRR 2 0
  DISZ  0.9
  GLAS  ___BLANK 1 0 1.51680 64.2 0 0 0 0 0 0
  DIAM  4.68 1 0 0 1 ""
  POPS 0 0 0 0 0 0 0 0 1 1 1 1 0 0 0 0
SURF 25
  TYPE STANDARD
  CURV 0 0 0 0 0
  HIDE 0 0 0 0 0 0 0 0 0 0
  MIRR 2 0
  DISZ  0.62702
  DIAM  4.68 1 0 0 1 ""
  POPS 0 0 0 0 0 0 0 0 1 1 1 1 0 0 0 0
SURF 26
  TYPE STANDARD
  CURV 0.0 0 0 0 0 ""
  HIDE 0 0 0 0 0 0 0 0 0 0
  MIRR 2 0
  DISZ 0
  DIAM 3.821 1 0 0 1 ""
  POPS 0 0 0 0 0 0 0 0 1 1 1 1 0 0 0 0
TOL TOFF   0   0              0              0   0 0 0 0
MNUM 3 1
THIC   2   1 0.3000 0 0 0 1 1 1 0 0
THIC   2   2 7.8855 0 0 0 1 1 1 0 0
THIC   2   3 17.2116 0 0 0 1 1 1 0 0
THIC   8   1 26.2611 0 0 0 1 1 1 0 0
THIC   8   2 9.4187 0 0 0 1 1 1 0 0
THIC   8   3 0.3234 0 0 0 1 1 1 0 0
THIC   19   1 2.7795 0 0 0 1 1 1 0 0
THIC   19   2 6.4064 0 0 0 1 1 1 0 0
THIC   19   3 13.8846 0 0 0 1 1 1 0 0
THIC   21   1 4.4190 0 0 0 1 1 1 0 0
THIC   21   2 5.1894 0 0 0 1 1 1 0 0
THIC   21   3 5.5372 0 0 0 1 1 1 0 0
THIC   26   1 7.642 0 0 0 1 1 1 0 0
THIC   26   2 8.536 0 0 0 1 1 1 0 0
THIC   26   3 8.536 0 0 0 1 1 1 0 0
