VERS 161019 507 33785
MODE SEQ
NAME US 2016/0054550 Example 1 (Leica DC Vario-Summilux 10.9-34mm F1.7-2.8 ASPH (Panasonic LX100M2))
NOTE 0 Prepared and converted by Bill Claff.
PFIL 0 0 0
LANG 0
UNIT MM X W X CM MR CPMM
FNUM 1.76551 0
ENVD 20 1 0
GFAC 0 0
RAIM 0 2 1 1 0 1 0 0 0
SDMA 0 1 0
FTYP 3 0 3 3 0 0 0
ROPD 2
HYPR 0
PICB 1
XFLN 0 0 0 0 0 0 0 0 0 0 0 0
YFLN 0 5.9703 8.529 0 0 0 0 0 0 0 0 0 0
FWGN 1 1 1 1 1 1 1 1 1 1 1 1
VDXN 0 0 0 0 0 0 0 0 0 0 0 0
VDYN 0 0 0 0 0 0 0 0 0 0 0 0
VCXN 0 0 0 0 0 0 0 0 0 0 0 0
VCYN 0 0 0 0 0 0 0 0 0 0 0 0
VANN 0 0 0 0 0 0 0 0 0 0 0 0
WAVM 1 0.4861327 1
WAVM 2 0.5875618 1
WAVM 3 0.6562725 1
WAVM 4 0.550 1
WAVM 5 0.550 1
WAVM 6 0.550 1
WAVM 7 0.550 1
WAVM 8 0.550 1
WAVM 9 0.550 1
WAVM 10 0.550 1
WAVM 11 0.550 1
WAVM 12 0.550 1
WAVM 13 0.550 1
WAVM 14 0.550 1
WAVM 15 0.550 1
WAVM 16 0.550 1
WAVM 17 0.550 1
WAVM 18 0.550 1
WAVM 19 0.550 1
WAVM 20 0.550 1
WAVM 21 0.550 1
WAVM 22 0.550 1
WAVM 23 0.550 1
WAVM 24 0.550 1
PWAV 2
POLS 1 0 1 0 0 1 0
GSTD 0 100 100 100 100 100 100 0 1 1 0 0 1 1 1 1 1 1
NSCD 100 500 0 1.0E-3 5 1.0E-6 0 0 0 0 0 0 1000000 0 2
SURF 0
  TYPE STANDARD
  CURV 0.0 0 0 0 0 ""
  HIDE 0 0 0 0 0 0 0 0 0 0
  MIRR 2 0
  DISZ INFINITY
  DIAM 0 1 0 0 1 ""
  POPS 0 0 0 0 0 0 0 0 1 1 1 1 0 0 0 0
SURF 1
  TYPE STANDARD
  CURV 0.0245571124764866 0 0 0 0
  HIDE 0 0 0 0 0 0 0 0 0 0
  MIRR 2 0
  DISZ  4.2249
  GLAS  ___BLANK 1 0 1.59282 68.6 0 0 0 0 0 0
  DIAM  15.2 1 0 0 1 ""
  POPS 0 0 0 0 0 0 0 0 1 1 1 1 0 0 0 0
SURF 2
  TYPE STANDARD
  CURV -0.000721680673045169 0 0 0 0
  HIDE 0 0 0 0 0 0 0 0 0 0
  MIRR 2 0
  DISZ  0.7165
  DIAM  15.2 1 0 0 1 ""
  POPS 0 0 0 0 0 0 0 0 1 1 1 1 0 0 0 0
SURF 3
  TYPE EVENASPH
  CURV -0.00885530955505612 0 0 0 0
  HIDE 0 0 0 0 0 0 0 0 0 0
  MIRR 2 0
  PARM 1 0
  PARM 2 4.0433E-05
  PARM 3 -5.9245E-08
  PARM 4 -1.8029E-09
  PARM 5 1.4134E-11
  PARM 6 -3.2710E-14
  PARM 7 0
  PARM 8 0
  DISZ  1.1
  CONI  0
  GLAS  ___BLANK 1 0 1.80500 41.0 0 0 0 0 0 0
  DIAM  11.46 1 0 0 1 ""
  POPS 0 0 0 0 0 0 0 0 1 1 1 1 0 0 0 0
SURF 4
  TYPE EVENASPH
  CURV 0.0762224170128435 0 0 0 0
  HIDE 0 0 0 0 0 0 0 0 0 0
  MIRR 2 0
  PARM 1 0
  PARM 2 5.6907E-07
  PARM 3 8.1196E-07
  PARM 4 -1.2441E-08
  PARM 5 5.4883E-11
  PARM 6 0
  PARM 7 0
  PARM 8 0
  DISZ  13.7558
  CONI  0
  DIAM  9.18 1 0 0 1 ""
  POPS 0 0 0 0 0 0 0 0 1 1 1 1 0 0 0 0
SURF 5
  TYPE STANDARD
  CURV -0.0235010446214334 0 0 0 0
  HIDE 0 0 0 0 0 0 0 0 0 0
  MIRR 2 0
  DISZ  0.5
  GLAS  ___BLANK 1 0 1.80518 25.5 0 0 0 0 0 0
  DIAM  5.86 1 0 0 1 ""
  POPS 0 0 0 0 0 0 0 0 1 1 1 1 0 0 0 0
SURF 6
  TYPE STANDARD
  CURV 0.0364349163089972 0 0 0 0
  HIDE 0 0 0 0 0 0 0 0 0 0
  MIRR 2 0
  DISZ  0.01
  GLAS  ___BLANK 1 0 1.56732 42.8 0 0 0 0 0 0
  DIAM  5.86 1 0 0 1 ""
  POPS 0 0 0 0 0 0 0 0 1 1 1 1 0 0 0 0
SURF 7
  TYPE STANDARD
  CURV 0.0364349163089972 0 0 0 0
  HIDE 0 0 0 0 0 0 0 0 0 0
  MIRR 2 0
  DISZ  2.0764
  GLAS  ___BLANK 1 0 1.91082 35.3 0 0 0 0 0 0
  DIAM  5.86 1 0 0 1 ""
  POPS 0 0 0 0 0 0 0 0 1 1 1 1 0 0 0 0
SURF 8
  TYPE STANDARD
  CURV -0.0364349163089972 0 0 0 0
  HIDE 0 0 0 0 0 0 0 0 0 0
  MIRR 2 0
  DISZ  1.301
  DIAM  5.86 1 0 0 1 ""
  POPS 0 0 0 0 0 0 0 0 1 1 1 1 0 0 0 0
SURF 9
  TYPE STANDARD
  CURV -0.0392768349155352 0 0 0 0
  HIDE 0 0 0 0 0 0 0 0 0 0
  MIRR 2 0
  DISZ  0.5
  GLAS  ___BLANK 1 0 1.68826 31.1 0 0 0 0 0 0
  DIAM  5.83 1 0 0 1 ""
  POPS 0 0 0 0 0 0 0 0 1 1 1 1 0 0 0 0
SURF 10
  TYPE EVENASPH
  CURV -0.014404614085984 0 0 0 0
  HIDE 0 0 0 0 0 0 0 0 0 0
  MIRR 2 0
  PARM 1 0
  PARM 2 8.1895E-05
  PARM 3 4.9538E-07
  PARM 4 -3.4272E-09
  PARM 5 1.0566E-10
  PARM 6 0
  PARM 7 0
  PARM 8 0
  DISZ  1.6811
  CONI  0
  DIAM  5.83 1 0 0 1 ""
  POPS 0 0 0 0 0 0 0 0 1 1 1 1 0 0 0 0
SURF 11
  TYPE EVENASPH
  CURV -0.0510321247225128 0 0 0 0
  HIDE 0 0 0 0 0 0 0 0 0 0
  MIRR 2 0
  PARM 1 0
  PARM 2 7.4326E-05
  PARM 3 3.7329E-07
  PARM 4 -5.1129E-09
  PARM 5 1.3184E-10
  PARM 6 0
  PARM 7 0
  PARM 8 0
  DISZ  0.5
  CONI  0
  GLAS  ___BLANK 1 0 1.58332 59.3 0 0 0 0 0 0
  DIAM  6.29 1 0 0 1 ""
  POPS 0 0 0 0 0 0 0 0 1 1 1 1 0 0 0 0
SURF 12
  TYPE STANDARD
  CURV 0.00820240921163364 0 0 0 0
  HIDE 0 0 0 0 0 0 0 0 0 0
  MIRR 2 0
  DISZ  0.01
  GLAS  ___BLANK 1 0 1.56732 42.8 0 0 0 0 0 0
  DIAM  6.29 1 0 0 1 ""
  POPS 0 0 0 0 0 0 0 0 1 1 1 1 0 0 0 0
SURF 13
  TYPE STANDARD
  CURV 0.00820240921163364 0 0 0 0
  HIDE 0 0 0 0 0 0 0 0 0 0
  MIRR 2 0
  DISZ  1.9221
  GLAS  ___BLANK 1 0 2.00272 19.3 0 0 0 0 0 0
  DIAM  6.29 1 0 0 1 ""
  POPS 0 0 0 0 0 0 0 0 1 1 1 1 0 0 0 0
SURF 14
  TYPE STANDARD
  CURV -0.0334298341211631 0 0 0 0
  HIDE 0 0 0 0 0 0 0 0 0 0
  MIRR 2 0
  DISZ  0.51
  DIAM  6.53 1 0 0 1 ""
  POPS 0 0 0 0 0 0 0 0 1 1 1 1 0 0 0 0
SURF 15
  STOP
  TYPE STANDARD
  CURV 0 0 0 0 0
  HIDE 0 0 0 0 0 0 0 0 0 0
  MIRR 2 0
  DISZ  11.4515
  DIAM  6.5495 1 0 0 1 ""
  POPS 0 0 0 0 0 0 0 0 1 1 1 1 0 0 0 0
SURF 16
  TYPE EVENASPH
  CURV 0.0531813057074177 0 0 0 0
  HIDE 0 0 0 0 0 0 0 0 0 0
  MIRR 2 0
  PARM 1 0
  PARM 2 -3.7648E-05
  PARM 3 1.0731E-07
  PARM 4 -1.3894E-09
  PARM 5 1.8161E-11
  PARM 6 0
  PARM 7 0
  PARM 8 0
  DISZ  6
  CONI  0
  GLAS  ___BLANK 1 0 1.55343 71.5 0 0 0 0 0 0
  DIAM  8.72 1 0 0 1 ""
  POPS 0 0 0 0 0 0 0 0 1 1 1 1 0 0 0 0
SURF 17
  TYPE EVENASPH
  CURV -0.0410520827774197 0 0 0 0
  HIDE 0 0 0 0 0 0 0 0 0 0
  MIRR 2 0
  PARM 1 0
  PARM 2 2.3088E-05
  PARM 3 9.8026E-09
  PARM 4 -7.6788E-10
  PARM 5 1.9366E-11
  PARM 6 0
  PARM 7 0
  PARM 8 0
  DISZ  0.15
  CONI  0
  DIAM  8.72 1 0 0 1 ""
  POPS 0 0 0 0 0 0 0 0 1 1 1 1 0 0 0 0
SURF 18
  TYPE STANDARD
  CURV 0.0404380246833703 0 0 0 0
  HIDE 0 0 0 0 0 0 0 0 0 0
  MIRR 2 0
  DISZ  3.5866
  GLAS  ___BLANK 1 0 1.77250 49.6 0 0 0 0 0 0
  DIAM  8.52 1 0 0 1 ""
  POPS 0 0 0 0 0 0 0 0 1 1 1 1 0 0 0 0
SURF 19
  TYPE STANDARD
  CURV -0.0240495034980003 0 0 0 0
  HIDE 0 0 0 0 0 0 0 0 0 0
  MIRR 2 0
  DISZ  0.01
  GLAS  ___BLANK 1 0 1.56732 42.8 0 0 0 0 0 0
  DIAM  8.52 1 0 0 1 ""
  POPS 0 0 0 0 0 0 0 0 1 1 1 1 0 0 0 0
SURF 20
  TYPE STANDARD
  CURV -0.0240495034980003 0 0 0 0
  HIDE 0 0 0 0 0 0 0 0 0 0
  MIRR 2 0
  DISZ  0.9796
  GLAS  ___BLANK 1 0 1.84666 23.8 0 0 0 0 0 0
  DIAM  8.52 1 0 0 1 ""
  POPS 0 0 0 0 0 0 0 0 1 1 1 1 0 0 0 0
SURF 21
  TYPE STANDARD
  CURV 0.0718638611015293 0 0 0 0
  HIDE 0 0 0 0 0 0 0 0 0 0
  MIRR 2 0
  DISZ  5.0978
  DIAM  8.16 1 0 0 1 ""
  POPS 0 0 0 0 0 0 0 0 1 1 1 1 0 0 0 0
SURF 22
  TYPE EVENASPH
  CURV 0.0509190895666786 0 0 0 0
  HIDE 0 0 0 0 0 0 0 0 0 0
  MIRR 2 0
  PARM 1 0
  PARM 2 -4.6411E-06
  PARM 3 1.8613E-07
  PARM 4 -1.8639E-09
  PARM 5 6.6953E-12
  PARM 6 0
  PARM 7 0
  PARM 8 0
  DISZ  4.6295
  CONI  0
  GLAS  ___BLANK 1 0 1.55343 71.5 0 0 0 0 0 0
  DIAM  11.63 1 0 0 1 ""
  POPS 0 0 0 0 0 0 0 0 1 1 1 1 0 0 0 0
SURF 23
  TYPE EVENASPH
  CURV 0.000102600830504475 0 0 0 0
  HIDE 0 0 0 0 0 0 0 0 0 0
  MIRR 2 0
  PARM 1 0
  PARM 2 1.6745E-05
  PARM 3 2.0018E-07
  PARM 4 -2.1929E-09
  PARM 5 7.8158E-12
  PARM 6 0
  PARM 7 0
  PARM 8 0
  DISZ  12.6772
  CONI  0
  DIAM  11.63 1 0 0 1 ""
  POPS 0 0 0 0 0 0 0 0 1 1 1 1 0 0 0 0
SURF 24
  TYPE STANDARD
  CURV 0 0 0 0 0
  HIDE 0 0 0 0 0 0 0 0 0 0
  MIRR 2 0
  DISZ  1.1
  GLAS  ___BLANK 1 0 1.51680 64.2 0 0 0 0 0 0
  DIAM  10.1 1 0 0 1 ""
  POPS 0 0 0 0 0 0 0 0 1 1 1 1 0 0 0 0
SURF 25
  TYPE STANDARD
  CURV 0 0 0 0 0
  HIDE 0 0 0 0 0 0 0 0 0 0
  MIRR 2 0
  DISZ  0.8218
  DIAM  10.1 1 0 0 1 ""
  POPS 0 0 0 0 0 0 0 0 1 1 1 1 0 0 0 0
SURF 26
  TYPE STANDARD
  CURV 0.0 0 0 0 0 ""
  HIDE 0 0 0 0 0 0 0 0 0 0
  MIRR 2 0
  DISZ 0
  DIAM 8.529 1 0 0 1 ""
  POPS 0 0 0 0 0 0 0 0 1 1 1 1 0 0 0 0
TOL TOFF   0   0              0              0   0 0 0 0
MNUM 3 1
THIC   2   1 0.7165 0 0 0 1 1 1 0 0
THIC   2   2 7.7275 0 0 0 1 1 1 0 0
THIC   2   3 16.6911 0 0 0 1 1 1 0 0
THIC   4   1 13.7558 0 0 0 1 1 1 0 0
THIC   4   2 6.9790 0 0 0 1 1 1 0 0
THIC   4   3 4.0594 0 0 0 1 1 1 0 0
THIC   10   1 1.6811 0 0 0 1 1 1 0 0
THIC   10   2 2.9900 0 0 0 1 1 1 0 0
THIC   10   3 3.6811 0 0 0 1 1 1 0 0
THIC   15   1 11.4515 0 0 0 1 1 1 0 0
THIC   15   2 6.1943 0 0 0 1 1 1 0 0
THIC   15   3 1.3700 0 0 0 1 1 1 0 0
THIC   21   1 5.0978 0 0 0 1 1 1 0 0
THIC   21   2 13.6054 0 0 0 1 1 1 0 0
THIC   21   3 24.7534 0 0 0 1 1 1 0 0
THIC   23   1 12.6772 0 0 0 1 1 1 0 0
THIC   23   2 13.6458 0 0 0 1 1 1 0 0
THIC   23   3 13.5187 0 0 0 1 1 1 0 0
THIC   25   1 0.8218 0 0 0 1 1 1 0 0
THIC   25   2 0.8298 0 0 0 1 1 1 0 0
THIC   25   3 0.7974 0 0 0 1 1 1 0 0
THIC   26   1 17.058 0 0 0 1 1 1 0 0
THIC   26   2 18.878 0 0 0 1 1 1 0 0
THIC   26   3 19.616 0 0 0 1 1 1 0 0
