VERS 161019 507 33785
MODE SEQ
NAME JP 2020-042221 Example 1 (Sigma 14-24mm F2.8 DG DN A)
NOTE 0 Prepared and converted by Bill Claff.
PFIL 0 0 0
LANG 0
UNIT MM X W X CM MR CPMM
FLOA
ENVD 20 1 0
GFAC 0 0
RAIM 0 2 1 1 0 1 0 0 0
SDMA 0 1 0
FTYP 3 0 3 3 0 0 0
ROPD 2
HYPR 0
PICB 1
XFLN 0 0 0 0 0 0 0 0 0 0 0 0
YFLN 0 15.141 21.63 0 0 0 0 0 0 0 0 0 0
FWGN 1 1 1 1 1 1 1 1 1 1 1 1
VDXN 0 0 0 0 0 0 0 0 0 0 0 0
VDYN 0 0 0 0 0 0 0 0 0 0 0 0
VCXN 0 0 0 0 0 0 0 0 0 0 0 0
VCYN 0 0 0 0 0 0 0 0 0 0 0 0
VANN 0 0 0 0 0 0 0 0 0 0 0 0
WAVM 1 0.4861327 1
WAVM 2 0.5875618 1
WAVM 3 0.6562725 1
WAVM 4 0.550 1
WAVM 5 0.550 1
WAVM 6 0.550 1
WAVM 7 0.550 1
WAVM 8 0.550 1
WAVM 9 0.550 1
WAVM 10 0.550 1
WAVM 11 0.550 1
WAVM 12 0.550 1
WAVM 13 0.550 1
WAVM 14 0.550 1
WAVM 15 0.550 1
WAVM 16 0.550 1
WAVM 17 0.550 1
WAVM 18 0.550 1
WAVM 19 0.550 1
WAVM 20 0.550 1
WAVM 21 0.550 1
WAVM 22 0.550 1
WAVM 23 0.550 1
WAVM 24 0.550 1
PWAV 2
POLS 1 0 1 0 0 1 0
GSTD 0 100 100 100 100 100 100 0 1 1 0 0 1 1 1 1 1 1
NSCD 100 500 0 1.0E-3 5 1.0E-6 0 0 0 0 0 0 1000000 0 2
SURF 0
  TYPE STANDARD
  CURV 0.0 0 0 0 0 ""
  HIDE 0 0 0 0 0 0 0 0 0 0
  MIRR 2 0
  DISZ INFINITY
  DIAM 0 1 0 0 1 ""
  POPS 0 0 0 0 0 0 0 0 1 1 1 1 0 0 0 0
SURF 1
  TYPE XASPHERE
  CURV 0.0117039554687902 0 0 0 0
  HIDE 0 0 0 0 0 0 0 0 0 0
  MIRR 2 0
  XDAT 1 10 0 0 1 0 0 ""
  XDAT 2 1 0 0 1 0 0 ""
  XDAT 3 0 0 0 1 0 0 ""
  XDAT 4 8.58209E-06 0 0 1 0 0 ""
  XDAT 5 -1.40764E-08 0 0 1 0 0 ""
  XDAT 6 3.05748E-11 0 0 1 0 0 ""
  XDAT 7 -5.97803E-14 0 0 1 0 0 ""
  XDAT 8 9.08590E-17 0 0 1 0 0 ""
  XDAT 9 -9.58737E-20 0 0 1 0 0 ""
  XDAT 10 6.40051E-23 0 0 1 0 0 ""
  XDAT 11 -2.39147E-26 0 0 1 0 0 ""
  XDAT 12 3.78519E-30 0 0 1 0 0 ""
  DISZ  3.2
  CONI  0
  GLAS  ___BLANK 1 0 1.69350 53.18 0 0 0 0 0 0
  DIAM  33.545 1 0 0 1 ""
  POPS 0 0 0 0 0 0 0 0 1 1 1 1 0 0 0 0
SURF 2
  TYPE STANDARD
  CURV 0.0389992785133475 0 0 0 0
  HIDE 0 0 0 0 0 0 0 0 0 0
  MIRR 2 0
  DISZ  5.9311
  DIAM  23.04 1 0 0 1 ""
  POPS 0 0 0 0 0 0 0 0 1 1 1 1 0 0 0 0
SURF 3
  TYPE STANDARD
  CURV 0.0310089057577336 0 0 0 0
  HIDE 0 0 0 0 0 0 0 0 0 0
  MIRR 2 0
  DISZ  1.7
  GLAS  ___BLANK 1 0 1.59282 68.62 0 0 0 0 0 0
  DIAM  24.015 1 0 0 1 ""
  POPS 0 0 0 0 0 0 0 0 1 1 1 1 0 0 0 0
SURF 4
  TYPE STANDARD
  CURV 0.049014321984884 0 0 0 0
  HIDE 0 0 0 0 0 0 0 0 0 0
  MIRR 2 0
  DISZ  9.9424
  DIAM  18.535 1 0 0 1 ""
  POPS 0 0 0 0 0 0 0 0 1 1 1 1 0 0 0 0
SURF 5
  TYPE XASPHERE
  CURV 0.0223451203843361 0 0 0 0
  HIDE 0 0 0 0 0 0 0 0 0 0
  MIRR 2 0
  XDAT 1 19 0 0 1 0 0 ""
  XDAT 2 1 0 0 1 0 0 ""
  XDAT 3 0 0 0 1 0 0 ""
  XDAT 4 -5.23111E-05 0 0 1 0 0 ""
  XDAT 5 -1.26716E-05 0 0 1 0 0 ""
  XDAT 6 -1.13040E-05 0 0 1 0 0 ""
  XDAT 7 1.95245E-06 0 0 1 0 0 ""
  XDAT 8 -9.38134E-08 0 0 1 0 0 ""
  XDAT 9 -7.82976E-10 0 0 1 0 0 ""
  XDAT 10 1.22496E-10 0 0 1 0 0 ""
  XDAT 11 1.97968E-12 0 0 1 0 0 ""
  XDAT 12 -1.33295E-14 0 0 1 0 0 ""
  XDAT 13 -1.10265E-14 0 0 1 0 0 ""
  XDAT 14 5.32582E-17 0 0 1 0 0 ""
  XDAT 15 7.28532E-18 0 0 1 0 0 ""
  XDAT 16 1.89244E-19 0 0 1 0 0 ""
  XDAT 17 -1.81192E-20 0 0 1 0 0 ""
  XDAT 18 1.13899E-21 0 0 1 0 0 ""
  XDAT 19 -2.99255E-23 0 0 1 0 0 ""
  XDAT 20 1.48595E-25 0 0 1 0 0 ""
  XDAT 21 -3.31214E-27 0 0 1 0 0 ""
  DISZ  2.4089
  CONI  0
  GLAS  ___BLANK 1 0 1.59271 66.97 0 0 0 0 0 0
  DIAM  19.28 1 0 0 1 ""
  POPS 0 0 0 0 0 0 0 0 1 1 1 1 0 0 0 0
SURF 6
  TYPE XASPHERE
  CURV 0.0537622846820498 0 0 0 0
  HIDE 0 0 0 0 0 0 0 0 0 0
  MIRR 2 0
  XDAT 1 19 0 0 1 0 0 ""
  XDAT 2 1 0 0 1 0 0 ""
  XDAT 3 0 0 0 1 0 0 ""
  XDAT 4 -3.48559E-05 0 0 1 0 0 ""
  XDAT 5 -1.50563E-05 0 0 1 0 0 ""
  XDAT 6 -1.10043E-05 0 0 1 0 0 ""
  XDAT 7 1.72222E-06 0 0 1 0 0 ""
  XDAT 8 -4.71099E-08 0 0 1 0 0 ""
  XDAT 9 -3.15483E-09 0 0 1 0 0 ""
  XDAT 10 -5.86163E-11 0 0 1 0 0 ""
  XDAT 11 1.76453E-11 0 0 1 0 0 ""
  XDAT 12 -1.10783E-13 0 0 1 0 0 ""
  XDAT 13 -5.28181E-15 0 0 1 0 0 ""
  XDAT 14 -8.35047E-16 0 0 1 0 0 ""
  XDAT 15 5.89441E-17 0 0 1 0 0 ""
  XDAT 16 -9.54814E-18 0 0 1 0 0 ""
  XDAT 17 3.21284E-19 0 0 1 0 0 ""
  XDAT 18 6.43253E-21 0 0 1 0 0 ""
  XDAT 19 -4.91029E-23 0 0 1 0 0 ""
  XDAT 20 1.37261E-24 0 0 1 0 0 ""
  XDAT 21 -5.09803E-25 0 0 1 0 0 ""
  DISZ  8.2083
  CONI  -0.0364842
  DIAM  15.525 1 0 0 1 ""
  POPS 0 0 0 0 0 0 0 0 1 1 1 1 0 0 0 0
SURF 7
  TYPE STANDARD
  CURV -0.00697514476912968 0 0 0 0
  HIDE 0 0 0 0 0 0 0 0 0 0
  MIRR 2 0
  DISZ  1
  GLAS  ___BLANK 1 0 1.59282 68.62 0 0 0 0 0 0
  DIAM  16.2 1 0 0 1 ""
  POPS 0 0 0 0 0 0 0 0 1 1 1 1 0 0 0 0
SURF 8
  TYPE STANDARD
  CURV 0.0153178061837984 0 0 0 0
  HIDE 0 0 0 0 0 0 0 0 0 0
  MIRR 2 0
  DISZ  0.25
  DIAM  15.455 1 0 0 1 ""
  POPS 0 0 0 0 0 0 0 0 1 1 1 1 0 0 0 0
SURF 9
  TYPE STANDARD
  CURV 0.0305637483380962 0 0 0 0
  HIDE 0 0 0 0 0 0 0 0 0 0
  MIRR 2 0
  DISZ  3.5498
  GLAS  ___BLANK 1 0 1.84666 23.78 0 0 0 0 0 0
  DIAM  15.98 1 0 0 1 ""
  POPS 0 0 0 0 0 0 0 0 1 1 1 1 0 0 0 0
SURF 10
  TYPE STANDARD
  CURV 0.0127268238174872 0 0 0 0
  HIDE 0 0 0 0 0 0 0 0 0 0
  MIRR 2 0
  DISZ  17.4502
  DIAM  15.375 1 0 0 1 ""
  POPS 0 0 0 0 0 0 0 0 1 1 1 1 0 0 0 0
SURF 11
  TYPE STANDARD
  CURV 0.0208387166684727 0 0 0 0
  HIDE 0 0 0 0 0 0 0 0 0 0
  MIRR 2 0
  DISZ  0.7
  GLAS  ___BLANK 1 0 1.92119 23.96 0 0 0 0 0 0
  DIAM  11.165 1 0 0 1 ""
  POPS 0 0 0 0 0 0 0 0 1 1 1 1 0 0 0 0
SURF 12
  TYPE STANDARD
  CURV 0.0552709103671647 0 0 0 0
  HIDE 0 0 0 0 0 0 0 0 0 0
  MIRR 2 0
  DISZ  4.5235
  GLAS  ___BLANK 1 0 1.75211 25.05 0 0 0 0 0 0
  DIAM  11.165 1 0 0 1 ""
  POPS 0 0 0 0 0 0 0 0 1 1 1 1 0 0 0 0
SURF 13
  TYPE STANDARD
  CURV 0.001 0 0 0 0
  HIDE 0 0 0 0 0 0 0 0 0 0
  MIRR 2 0
  DISZ  8.4183
  DIAM  11.165 1 0 0 1 ""
  POPS 0 0 0 0 0 0 0 0 1 1 1 1 0 0 0 0
SURF 14
  TYPE STANDARD
  CURV -0.0217734946894446 0 0 0 0
  HIDE 0 0 0 0 0 0 0 0 0 0
  MIRR 2 0
  DISZ  0.8473
  GLAS  ___BLANK 1 0 1.80809 22.76 0 0 0 0 0 0
  DIAM  11.02 1 0 0 1 ""
  POPS 0 0 0 0 0 0 0 0 1 1 1 1 0 0 0 0
SURF 15
  TYPE STANDARD
  CURV -0.00766043439259267 0 0 0 0
  HIDE 0 0 0 0 0 0 0 0 0 0
  MIRR 2 0
  DISZ  0.15
  DIAM  11.845 1 0 0 1 ""
  POPS 0 0 0 0 0 0 0 0 1 1 1 1 0 0 0 0
SURF 16
  TYPE STANDARD
  CURV 0.0228036650050396 0 0 0 0
  HIDE 0 0 0 0 0 0 0 0 0 0
  MIRR 2 0
  DISZ  0.8157
  GLAS  ___BLANK 1 0 1.94595 17.98 0 0 0 0 0 0
  DIAM  12.145 1 0 0 1 ""
  POPS 0 0 0 0 0 0 0 0 1 1 1 1 0 0 0 0
SURF 17
  TYPE STANDARD
  CURV 0.0406449541321693 0 0 0 0
  HIDE 0 0 0 0 0 0 0 0 0 0
  MIRR 2 0
  DISZ  5.0424
  GLAS  ___BLANK 1 0 1.75520 27.51 0 0 0 0 0 0
  DIAM  12.375 1 0 0 1 ""
  POPS 0 0 0 0 0 0 0 0 1 1 1 1 0 0 0 0
SURF 18
  TYPE STANDARD
  CURV -0.00418485509311512 0 0 0 0
  HIDE 0 0 0 0 0 0 0 0 0 0
  MIRR 2 0
  DISZ  9.1955
  DIAM  12.375 1 0 0 1 ""
  POPS 0 0 0 0 0 0 0 0 1 1 1 1 0 0 0 0
SURF 19
  STOP
  TYPE STANDARD
  CURV 0 0 0 0 0
  HIDE 0 0 0 0 0 0 0 0 0 0
  MIRR 2 0
  DISZ  1.24
  DIAM  8.5965 1 0 0 1 ""
  POPS 0 0 0 0 0 0 0 0 1 1 1 1 0 0 0 0
SURF 20
  TYPE STANDARD
  CURV 0.0373376744602839 0 0 0 0
  HIDE 0 0 0 0 0 0 0 0 0 0
  MIRR 2 0
  DISZ  5.4475
  GLAS  ___BLANK 1 0 1.43700 95.10 0 0 0 0 0 0
  DIAM  12.67 1 0 0 1 ""
  POPS 0 0 0 0 0 0 0 0 1 1 1 1 0 0 0 0
SURF 21
  TYPE STANDARD
  CURV -0.0121683367708885 0 0 0 0
  HIDE 0 0 0 0 0 0 0 0 0 0
  MIRR 2 0
  DISZ  0.15
  DIAM  12.67 1 0 0 1 ""
  POPS 0 0 0 0 0 0 0 0 1 1 1 1 0 0 0 0
SURF 22
  TYPE STANDARD
  CURV 0.0362249278218313 0 0 0 0
  HIDE 0 0 0 0 0 0 0 0 0 0
  MIRR 2 0
  DISZ  0.8
  GLAS  ___BLANK 1 0 1.72047 34.71 0 0 0 0 0 0
  DIAM  11.995 1 0 0 1 ""
  POPS 0 0 0 0 0 0 0 0 1 1 1 1 0 0 0 0
SURF 23
  TYPE STANDARD
  CURV 0.0703259608284398 0 0 0 0
  HIDE 0 0 0 0 0 0 0 0 0 0
  MIRR 2 0
  DISZ  7.7162
  GLAS  ___BLANK 1 0 1.55032 75.50 0 0 0 0 0 0
  DIAM  11.695 1 0 0 1 ""
  POPS 0 0 0 0 0 0 0 0 1 1 1 1 0 0 0 0
SURF 24
  TYPE STANDARD
  CURV -0.00331067288102038 0 0 0 0
  HIDE 0 0 0 0 0 0 0 0 0 0
  MIRR 2 0
  DISZ  3.1611
  DIAM  11.695 1 0 0 1 ""
  POPS 0 0 0 0 0 0 0 0 1 1 1 1 0 0 0 0
SURF 25
  TYPE STANDARD
  CURV -0.0233810384454415 0 0 0 0
  HIDE 0 0 0 0 0 0 0 0 0 0
  MIRR 2 0
  DISZ  0.8
  GLAS  ___BLANK 1 0 1.95375 32.32 0 0 0 0 0 0
  DIAM  10.35 1 0 0 1 ""
  POPS 0 0 0 0 0 0 0 0 1 1 1 1 0 0 0 0
SURF 26
  TYPE STANDARD
  CURV 0.0602612929663019 0 0 0 0
  HIDE 0 0 0 0 0 0 0 0 0 0
  MIRR 2 0
  DISZ  5.1186
  GLAS  ___BLANK 1 0 1.92286 20.88 0 0 0 0 0 0
  DIAM  10.87 1 0 0 1 ""
  POPS 0 0 0 0 0 0 0 0 1 1 1 1 0 0 0 0
SURF 27
  TYPE STANDARD
  CURV 0.00604993251300282 0 0 0 0
  HIDE 0 0 0 0 0 0 0 0 0 0
  MIRR 2 0
  DISZ  0.15
  DIAM  10.87 1 0 0 1 ""
  POPS 0 0 0 0 0 0 0 0 1 1 1 1 0 0 0 0
SURF 28
  TYPE STANDARD
  CURV 0.0326735455371204 0 0 0 0
  HIDE 0 0 0 0 0 0 0 0 0 0
  MIRR 2 0
  DISZ  0.8
  GLAS  ___BLANK 1 0 1.88300 40.80 0 0 0 0 0 0
  DIAM  12.375 1 0 0 1 ""
  POPS 0 0 0 0 0 0 0 0 1 1 1 1 0 0 0 0
SURF 29
  TYPE STANDARD
  CURV 0.0650618087182824 0 0 0 0
  HIDE 0 0 0 0 0 0 0 0 0 0
  MIRR 2 0
  DISZ  7.4494
  GLAS  ___BLANK 1 0 1.55032 75.50 0 0 0 0 0 0
  DIAM  12.225 1 0 0 1 ""
  POPS 0 0 0 0 0 0 0 0 1 1 1 1 0 0 0 0
SURF 30
  TYPE STANDARD
  CURV 0.006841620588352 0 0 0 0
  HIDE 0 0 0 0 0 0 0 0 0 0
  MIRR 2 0
  DISZ  1.4019
  DIAM  12.225 1 0 0 1 ""
  POPS 0 0 0 0 0 0 0 0 1 1 1 1 0 0 0 0
SURF 31
  TYPE XASPHERE
  CURV -0.00333333333333333 0 0 0 0
  HIDE 0 0 0 0 0 0 0 0 0 0
  MIRR 2 0
  XDAT 1 19 0 0 1 0 0 ""
  XDAT 2 1 0 0 1 0 0 ""
  XDAT 3 0 0 0 1 0 0 ""
  XDAT 4 0 0 0 1 0 0 ""
  XDAT 5 -2.45667E-05 0 0 1 0 0 ""
  XDAT 6 0.00000E+00 0 0 1 0 0 ""
  XDAT 7 -8.17092E-08 0 0 1 0 0 ""
  XDAT 8 0.00000E+00 0 0 1 0 0 ""
  XDAT 9 2.81370E-09 0 0 1 0 0 ""
  XDAT 10 0.00000E+00 0 0 1 0 0 ""
  XDAT 11 -7.26008E-11 0 0 1 0 0 ""
  XDAT 12 0.00000E+00 0 0 1 0 0 ""
  XDAT 13 1.11778E-12 0 0 1 0 0 ""
  XDAT 14 0.00000E+00 0 0 1 0 0 ""
  XDAT 15 -9.83681E-15 0 0 1 0 0 ""
  XDAT 16 0.00000E+00 0 0 1 0 0 ""
  XDAT 17 4.86452E-17 0 0 1 0 0 ""
  XDAT 18 0.00000E+00 0 0 1 0 0 ""
  XDAT 19 -1.24975E-19 0 0 1 0 0 ""
  XDAT 20 0.00000E+00 0 0 1 0 0 ""
  XDAT 21 1.29336E-22 0 0 1 0 0 ""
  DISZ  2.035
  CONI  0
  GLAS  ___BLANK 1 0 1.55352 71.72 0 0 0 0 0 0
  DIAM  12.225 1 0 0 1 ""
  POPS 0 0 0 0 0 0 0 0 1 1 1 1 0 0 0 0
SURF 32
  TYPE XASPHERE
  CURV -0.0141934769618579 0 0 0 0
  HIDE 0 0 0 0 0 0 0 0 0 0
  MIRR 2 0
  XDAT 1 19 0 0 1 0 0 ""
  XDAT 2 1 0 0 1 0 0 ""
  XDAT 3 0 0 0 1 0 0 ""
  XDAT 4 0 0 0 1 0 0 ""
  XDAT 5 5.66654E-06 0 0 1 0 0 ""
  XDAT 6 0.00000E+00 0 0 1 0 0 ""
  XDAT 7 5.42201E-08 0 0 1 0 0 ""
  XDAT 8 0.00000E+00 0 0 1 0 0 ""
  XDAT 9 -2.06458E-09 0 0 1 0 0 ""
  XDAT 10 0.00000E+00 0 0 1 0 0 ""
  XDAT 11 3.25090E-11 0 0 1 0 0 ""
  XDAT 12 0.00000E+00 0 0 1 0 0 ""
  XDAT 13 -2.56410E-13 0 0 1 0 0 ""
  XDAT 14 0.00000E+00 0 0 1 0 0 ""
  XDAT 15 1.03356E-15 0 0 1 0 0 ""
  XDAT 16 0.00000E+00 0 0 1 0 0 ""
  XDAT 17 -1.78037E-18 0 0 1 0 0 ""
  XDAT 18 0.00000E+00 0 0 1 0 0 ""
  XDAT 19 -8.07610E-22 0 0 1 0 0 ""
  XDAT 20 0.00000E+00 0 0 1 0 0 ""
  XDAT 21 5.22718E-24 0 0 1 0 0 ""
  DISZ  21.5383
  CONI  0
  DIAM  12.97 1 0 0 1 ""
  POPS 0 0 0 0 0 0 0 0 1 1 1 1 0 0 0 0
SURF 33
  TYPE STANDARD
  CURV 0.0 0 0 0 0 ""
  HIDE 0 0 0 0 0 0 0 0 0 0
  MIRR 2 0
  DISZ 0
  DIAM 21.63 1 0 0 1 ""
  POPS 0 0 0 0 0 0 0 0 1 1 1 1 0 0 0 0
TOL TOFF   0   0              0              0   0 0 0 0
MNUM 3 1
SDIA   19   1 8.5965 0 0 0 1 1 1 0 0
SDIA   19   2 9.7605 0 0 0 1 1 1 0 0
SDIA   19   3 11.4785 0 0 0 1 1 1 0 0
THIC   10   1 17.4502 0 0 0 1 1 1 0 0
THIC   10   2 9.3308 0 0 0 1 1 1 0 0
THIC   10   3 3.1517 0 0 0 1 1 1 0 0
THIC   13   1 8.4183 0 0 0 1 1 1 0 0
THIC   13   2 10.2009 0 0 0 1 1 1 0 0
THIC   13   3 9.5800 0 0 0 1 1 1 0 0
THIC   18   1 9.1955 0 0 0 1 1 1 0 0
THIC   18   2 5.5627 0 0 0 1 1 1 0 0
THIC   18   3 2.6650 0 0 0 1 1 1 0 0
THIC   32   1 21.5383 0 0 0 1 1 1 0 0
THIC   32   2 27.2429 0 0 0 1 1 1 0 0
THIC   32   3 35.0738 0 0 0 1 1 1 0 0
