VERS 161019 507 33785
MODE SEQ
NAME JP 2018-189733 Example 1 (Sigma 14-24mm F2.8 DG HSM Art)
NOTE 0 Prepared and converted by Bill Claff.
PFIL 0 0 0
LANG 0
UNIT MM X W X CM MR CPMM
FLOA
ENVD 20 1 0
GFAC 0 0
RAIM 0 2 1 1 0 1 0 0 0
SDMA 0 1 0
FTYP 3 0 3 3 0 0 0
ROPD 2
HYPR 0
PICB 1
XFLN 0 0 0 0 0 0 0 0 0 0 0 0
YFLN 0 15.141 21.63 0 0 0 0 0 0 0 0 0 0
FWGN 1 1 1 1 1 1 1 1 1 1 1 1
VDXN 0 0 0 0 0 0 0 0 0 0 0 0
VDYN 0 0 0 0 0 0 0 0 0 0 0 0
VCXN 0 0 0 0 0 0 0 0 0 0 0 0
VCYN 0 0 0 0 0 0 0 0 0 0 0 0
VANN 0 0 0 0 0 0 0 0 0 0 0 0
WAVM 1 0.4861327 1
WAVM 2 0.5875618 1
WAVM 3 0.6562725 1
WAVM 4 0.550 1
WAVM 5 0.550 1
WAVM 6 0.550 1
WAVM 7 0.550 1
WAVM 8 0.550 1
WAVM 9 0.550 1
WAVM 10 0.550 1
WAVM 11 0.550 1
WAVM 12 0.550 1
WAVM 13 0.550 1
WAVM 14 0.550 1
WAVM 15 0.550 1
WAVM 16 0.550 1
WAVM 17 0.550 1
WAVM 18 0.550 1
WAVM 19 0.550 1
WAVM 20 0.550 1
WAVM 21 0.550 1
WAVM 22 0.550 1
WAVM 23 0.550 1
WAVM 24 0.550 1
PWAV 2
POLS 1 0 1 0 0 1 0
GSTD 0 100 100 100 100 100 100 0 1 1 0 0 1 1 1 1 1 1
NSCD 100 500 0 1.0E-3 5 1.0E-6 0 0 0 0 0 0 1000000 0 2
SURF 0
  TYPE STANDARD
  CURV 0.0 0 0 0 0 ""
  HIDE 0 0 0 0 0 0 0 0 0 0
  MIRR 2 0
  DISZ INFINITY
  DIAM 0 1 0 0 1 ""
  POPS 0 0 0 0 0 0 0 0 1 1 1 1 0 0 0 0
SURF 1
  TYPE EVENASPH
  CURV 0.00968448903183195 0 0 0 0
  HIDE 0 0 0 0 0 0 0 0 0 0
  MIRR 2 0
  PARM 1 0
  PARM 2 6.55174E-06
  PARM 3 -5.95250E-09
  PARM 4 5.79271E-12
  PARM 5 -2.88620E-15
  PARM 6 6.61914E-19
  PARM 7 0
  PARM 8 0
  DISZ  3.9
  CONI  0
  GLAS  ___BLANK 1 0 1.69350 53.18 0 0 0 0 0 0
  DIAM  38.89 1 0 0 1 ""
  POPS 0 0 0 0 0 0 0 0 1 1 1 1 0 0 0 0
SURF 2
  TYPE STANDARD
  CURV 0.0323504197466962 0 0 0 0
  HIDE 0 0 0 0 0 0 0 0 0 0
  MIRR 2 0
  DISZ  8.0372
  DIAM  28.46 1 0 0 1 ""
  POPS 0 0 0 0 0 0 0 0 1 1 1 1 0 0 0 0
SURF 3
  TYPE STANDARD
  CURV 0.0245601281056282 0 0 0 0
  HIDE 0 0 0 0 0 0 0 0 0 0
  MIRR 2 0
  DISZ  2.75
  GLAS  ___BLANK 1 0 2.00100 29.13 0 0 0 0 0 0
  DIAM  29.83 1 0 0 1 ""
  POPS 0 0 0 0 0 0 0 0 1 1 1 1 0 0 0 0
SURF 4
  TYPE STANDARD
  CURV 0.0421578050960355 0 0 0 0
  HIDE 0 0 0 0 0 0 0 0 0 0
  MIRR 2 0
  DISZ  9.2439
  DIAM  21.95 1 0 0 1 ""
  POPS 0 0 0 0 0 0 0 0 1 1 1 1 0 0 0 0
SURF 5
  TYPE XASPHERE
  CURV 0.0179331988343421 0 0 0 0
  HIDE 0 0 0 0 0 0 0 0 0 0
  MIRR 2 0
  XDAT 1 15 0 0 1 0 0 ""
  XDAT 2 1 0 0 1 0 0 ""
  XDAT 3 0 0 0 1 0 0 ""
  XDAT 4 1.93222E-04 0 0 1 0 0 ""
  XDAT 5 -3.68159E-05 0 0 1 0 0 ""
  XDAT 6 5.25855E-06 0 0 1 0 0 ""
  XDAT 7 -6.73333E-07 0 0 1 0 0 ""
  XDAT 8 9.17837E-08 0 0 1 0 0 ""
  XDAT 9 -6.28671E-09 0 0 1 0 0 ""
  XDAT 10 3.30188E-11 0 0 1 0 0 ""
  XDAT 11 1.65903E-11 0 0 1 0 0 ""
  XDAT 12 -7.27135E-13 0 0 1 0 0 ""
  XDAT 13 8.86930E-15 0 0 1 0 0 ""
  XDAT 14 -2.15003E-17 0 0 1 0 0 ""
  XDAT 15 -9.32433E-19 0 0 1 0 0 ""
  XDAT 16 2.26985E-19 0 0 1 0 0 ""
  XDAT 17 -5.26081E-21 0 0 1 0 0 ""
  DISZ  2.05
  CONI  0
  GLAS  ___BLANK 1 0 1.58913 61.25 0 0 0 0 0 0
  DIAM  22.38 1 0 0 1 ""
  POPS 0 0 0 0 0 0 0 0 1 1 1 1 0 0 0 0
SURF 6
  TYPE XASPHERE
  CURV 0.0352442780914519 0 0 0 0
  HIDE 0 0 0 0 0 0 0 0 0 0
  MIRR 2 0
  XDAT 1 15 0 0 1 0 0 ""
  XDAT 2 1 0 0 1 0 0 ""
  XDAT 3 0 0 0 1 0 0 ""
  XDAT 4 1.94996E-04 0 0 1 0 0 ""
  XDAT 5 -2.79917E-05 0 0 1 0 0 ""
  XDAT 6 3.65169E-06 0 0 1 0 0 ""
  XDAT 7 -2.89294E-07 0 0 1 0 0 ""
  XDAT 8 5.54599E-08 0 0 1 0 0 ""
  XDAT 9 -4.95413E-09 0 0 1 0 0 ""
  XDAT 10 4.32334E-12 0 0 1 0 0 ""
  XDAT 11 1.90161E-11 0 0 1 0 0 ""
  XDAT 12 -8.89540E-13 0 0 1 0 0 ""
  XDAT 13 1.29484E-14 0 0 1 0 0 ""
  XDAT 14 5.98468E-17 0 0 1 0 0 ""
  XDAT 15 -2.64408E-18 0 0 1 0 0 ""
  XDAT 16 -2.71372E-19 0 0 1 0 0 ""
  XDAT 17 1.09024E-20 0 0 1 0 0 ""
  DISZ  6.7015
  CONI  0
  DIAM  20.23 1 0 0 1 ""
  POPS 0 0 0 0 0 0 0 0 1 1 1 1 0 0 0 0
SURF 7
  TYPE STANDARD
  CURV 0.0120766966853091 0 0 0 0
  HIDE 0 0 0 0 0 0 0 0 0 0
  MIRR 2 0
  DISZ  1.4
  GLAS  ___BLANK 1 0 1.55032 75.50 0 0 0 0 0 0
  DIAM  19.97 1 0 0 1 ""
  POPS 0 0 0 0 0 0 0 0 1 1 1 1 0 0 0 0
SURF 8
  TYPE STANDARD
  CURV 0.0221791453931697 0 0 0 0
  HIDE 0 0 0 0 0 0 0 0 0 0
  MIRR 2 0
  DISZ  7.5827
  DIAM  18.6 1 0 0 1 ""
  POPS 0 0 0 0 0 0 0 0 1 1 1 1 0 0 0 0
SURF 9
  TYPE STANDARD
  CURV -0.0128691019297218 0 0 0 0
  HIDE 0 0 0 0 0 0 0 0 0 0
  MIRR 2 0
  DISZ  1.5463
  GLAS  ___BLANK 1 0 1.43700 95.10 0 0 0 0 0 0
  DIAM  18.18 1 0 0 1 ""
  POPS 0 0 0 0 0 0 0 0 1 1 1 1 0 0 0 0
SURF 10
  TYPE STANDARD
  CURV 0.0274222032094947 0 0 0 0
  HIDE 0 0 0 0 0 0 0 0 0 0
  MIRR 2 0
  DISZ  6.133
  GLAS  ___BLANK 1 0 1.90043 37.37 0 0 0 0 0 0
  DIAM  18.86 1 0 0 1 ""
  POPS 0 0 0 0 0 0 0 0 1 1 1 1 0 0 0 0
SURF 11
  TYPE STANDARD
  CURV -0.00129016226757888 0 0 0 0
  HIDE 0 0 0 0 0 0 0 0 0 0
  MIRR 2 0
  DISZ  29.2621
  DIAM  18.86 1 0 0 1 ""
  POPS 0 0 0 0 0 0 0 0 1 1 1 1 0 0 0 0
SURF 12
  TYPE STANDARD
  CURV 0.0173565911654951 0 0 0 0
  HIDE 0 0 0 0 0 0 0 0 0 0
  MIRR 2 0
  DISZ  0.8
  GLAS  ___BLANK 1 0 1.92286 20.88 0 0 0 0 0 0
  DIAM  12.03 1 0 0 1 ""
  POPS 0 0 0 0 0 0 0 0 1 1 1 1 0 0 0 0
SURF 13
  TYPE STANDARD
  CURV 0.0460462396338403 0 0 0 0
  HIDE 0 0 0 0 0 0 0 0 0 0
  MIRR 2 0
  DISZ  4.5092
  GLAS  ___BLANK 1 0 1.72047 34.71 0 0 0 0 0 0
  DIAM  12.03 1 0 0 1 ""
  POPS 0 0 0 0 0 0 0 0 1 1 1 1 0 0 0 0
SURF 14
  TYPE STANDARD
  CURV 0.00561433767097062 0 0 0 0
  HIDE 0 0 0 0 0 0 0 0 0 0
  MIRR 2 0
  DISZ  0.15
  DIAM  12.03 1 0 0 1 ""
  POPS 0 0 0 0 0 0 0 0 1 1 1 1 0 0 0 0
SURF 15
  TYPE STANDARD
  CURV 0.0239323194007347 0 0 0 0
  HIDE 0 0 0 0 0 0 0 0 0 0
  MIRR 2 0
  DISZ  6.1027
  GLAS  ___BLANK 1 0 1.85478 24.80 0 0 0 0 0 0
  DIAM  12.03 1 0 0 1 ""
  POPS 0 0 0 0 0 0 0 0 1 1 1 1 0 0 0 0
SURF 16
  TYPE STANDARD
  CURV -0.0293170877577705 0 0 0 0
  HIDE 0 0 0 0 0 0 0 0 0 0
  MIRR 2 0
  DISZ  0.8
  GLAS  ___BLANK 1 0 1.87071 40.73 0 0 0 0 0 0
  DIAM  12.03 1 0 0 1 ""
  POPS 0 0 0 0 0 0 0 0 1 1 1 1 0 0 0 0
SURF 17
  TYPE STANDARD
  CURV 0.0110329974888898 0 0 0 0
  HIDE 0 0 0 0 0 0 0 0 0 0
  MIRR 2 0
  DISZ  8.4844
  DIAM  12.03 1 0 0 1 ""
  POPS 0 0 0 0 0 0 0 0 1 1 1 1 0 0 0 0
SURF 18
  STOP
  TYPE STANDARD
  CURV 0 0 0 0 0
  HIDE 0 0 0 0 0 0 0 0 0 0
  MIRR 2 0
  DISZ  1.2451
  DIAM  8.633 1 0 0 1 ""
  POPS 0 0 0 0 0 0 0 0 1 1 1 1 0 0 0 0
SURF 19
  TYPE STANDARD
  CURV 0.0161961679866544 0 0 0 0
  HIDE 0 0 0 0 0 0 0 0 0 0
  MIRR 2 0
  DISZ  1.6529
  GLAS  ___BLANK 1 0 1.83481 42.72 0 0 0 0 0 0
  DIAM  12.29 1 0 0 1 ""
  POPS 0 0 0 0 0 0 0 0 1 1 1 1 0 0 0 0
SURF 20
  TYPE STANDARD
  CURV 0.044521813462506 0 0 0 0
  HIDE 0 0 0 0 0 0 0 0 0 0
  MIRR 2 0
  DISZ  8.7241
  GLAS  ___BLANK 1 0 1.43700 95.10 0 0 0 0 0 0
  DIAM  12.29 1 0 0 1 ""
  POPS 0 0 0 0 0 0 0 0 1 1 1 1 0 0 0 0
SURF 21
  TYPE STANDARD
  CURV -0.044521813462506 0 0 0 0
  HIDE 0 0 0 0 0 0 0 0 0 0
  MIRR 2 0
  DISZ  0.9
  GLAS  ___BLANK 1 0 1.88300 40.80 0 0 0 0 0 0
  DIAM  12.29 1 0 0 1 ""
  POPS 0 0 0 0 0 0 0 0 1 1 1 1 0 0 0 0
SURF 22
  TYPE STANDARD
  CURV -0.0184903720632667 0 0 0 0
  HIDE 0 0 0 0 0 0 0 0 0 0
  MIRR 2 0
  DISZ  0.15
  DIAM  12.29 1 0 0 1 ""
  POPS 0 0 0 0 0 0 0 0 1 1 1 1 0 0 0 0
SURF 23
  TYPE STANDARD
  CURV 0.0327407261893069 0 0 0 0
  HIDE 0 0 0 0 0 0 0 0 0 0
  MIRR 2 0
  DISZ  6.6588
  GLAS  ___BLANK 1 0 1.43700 95.10 0 0 0 0 0 0
  DIAM  12.63 1 0 0 1 ""
  POPS 0 0 0 0 0 0 0 0 1 1 1 1 0 0 0 0
SURF 24
  TYPE STANDARD
  CURV -0.0256790174180775 0 0 0 0
  HIDE 0 0 0 0 0 0 0 0 0 0
  MIRR 2 0
  DISZ  0.15
  DIAM  12.63 1 0 0 1 ""
  POPS 0 0 0 0 0 0 0 0 1 1 1 1 0 0 0 0
SURF 25
  TYPE STANDARD
  CURV 0.0298959024676078 0 0 0 0
  HIDE 0 0 0 0 0 0 0 0 0 0
  MIRR 2 0
  DISZ  0.9
  GLAS  ___BLANK 1 0 1.88300 40.80 0 0 0 0 0 0
  DIAM  13.01 1 0 0 1 ""
  POPS 0 0 0 0 0 0 0 0 1 1 1 1 0 0 0 0
SURF 26
  TYPE STANDARD
  CURV 0.0580399895528019 0 0 0 0
  HIDE 0 0 0 0 0 0 0 0 0 0
  MIRR 2 0
  DISZ  5.1983
  GLAS  ___BLANK 1 0 1.49700 81.61 0 0 0 0 0 0
  DIAM  13.01 1 0 0 1 ""
  POPS 0 0 0 0 0 0 0 0 1 1 1 1 0 0 0 0
SURF 27
  TYPE STANDARD
  CURV 0.0245321714896916 0 0 0 0
  HIDE 0 0 0 0 0 0 0 0 0 0
  MIRR 2 0
  DISZ  3.0166
  DIAM  12.24 1 0 0 1 ""
  POPS 0 0 0 0 0 0 0 0 1 1 1 1 0 0 0 0
SURF 28
  TYPE XASPHERE
  CURV -0.0167258762686577 0 0 0 0
  HIDE 0 0 0 0 0 0 0 0 0 0
  MIRR 2 0
  XDAT 1 15 0 0 1 0 0 ""
  XDAT 2 1 0 0 1 0 0 ""
  XDAT 3 0 0 0 1 0 0 ""
  XDAT 4 0 0 0 1 0 0 ""
  XDAT 5 2.90946E-06 0 0 1 0 0 ""
  XDAT 6 0 0 0 1 0 0 ""
  XDAT 7 2.52437E-07 0 0 1 0 0 ""
  XDAT 8 0 0 0 1 0 0 ""
  XDAT 9 -2.81316E-09 0 0 1 0 0 ""
  XDAT 10 0 0 0 1 0 0 ""
  XDAT 11 1.11245E-11 0 0 1 0 0 ""
  XDAT 12 0 0 0 1 0 0 ""
  XDAT 13 5.16896E-14 0 0 1 0 0 ""
  XDAT 14 0 0 0 1 0 0 ""
  XDAT 15 -7.20468E-16 0 0 1 0 0 ""
  XDAT 16 0 0 0 1 0 0 ""
  XDAT 17 1.89635E-18 0 0 1 0 0 ""
  DISZ  2.5013
  CONI  0
  GLAS  ___BLANK 1 0 1.55332 71.68 0 0 0 0 0 0
  DIAM  12.24 1 0 0 1 ""
  POPS 0 0 0 0 0 0 0 0 1 1 1 1 0 0 0 0
SURF 29
  TYPE XASPHERE
  CURV -0.0299909427352939 0 0 0 0
  HIDE 0 0 0 0 0 0 0 0 0 0
  MIRR 2 0
  XDAT 1 15 0 0 1 0 0 ""
  XDAT 2 1 0 0 1 0 0 ""
  XDAT 3 0 0 0 1 0 0 ""
  XDAT 4 0 0 0 1 0 0 ""
  XDAT 5 1.29160E-05 0 0 1 0 0 ""
  XDAT 6 0 0 0 1 0 0 ""
  XDAT 7 2.41692E-07 0 0 1 0 0 ""
  XDAT 8 0 0 0 1 0 0 ""
  XDAT 9 -2.80692E-09 0 0 1 0 0 ""
  XDAT 10 0 0 0 1 0 0 ""
  XDAT 11 1.94763E-11 0 0 1 0 0 ""
  XDAT 12 0 0 0 1 0 0 ""
  XDAT 13 -6.96686E-14 0 0 1 0 0 ""
  XDAT 14 0 0 0 1 0 0 ""
  XDAT 15 1.18168E-17 0 0 1 0 0 ""
  XDAT 16 0 0 0 1 0 0 ""
  XDAT 17 2.99920E-19 0 0 1 0 0 ""
  DISZ  38.85
  CONI  0
  DIAM  13.39 1 0 0 1 ""
  POPS 0 0 0 0 0 0 0 0 1 1 1 1 0 0 0 0
SURF 30
  TYPE STANDARD
  CURV 0.0 0 0 0 0 ""
  HIDE 0 0 0 0 0 0 0 0 0 0
  MIRR 2 0
  DISZ 0
  DIAM 21.63 1 0 0 1 ""
  POPS 0 0 0 0 0 0 0 0 1 1 1 1 0 0 0 0
TOL TOFF   0   0              0              0   0 0 0 0
MNUM 3 1
SDIA   18   1 8.633 0 0 0 1 1 1 0 0
SDIA   18   2 9.435 0 0 0 1 1 1 0 0
SDIA   18   3 10.6885 0 0 0 1 1 1 0 0
THIC   11   1 29.2621 0 0 0 1 1 1 0 0
THIC   11   2 15.3732 0 0 0 1 1 1 0 0
THIC   11   3 2.3000 0 0 0 1 1 1 0 0
THIC   17   1 8.4844 0 0 0 1 1 1 0 0
THIC   17   2 9.0291 0 0 0 1 1 1 0 0
THIC   17   3 9.7754 0 0 0 1 1 1 0 0
THIC   29   1 38.8500 0 0 0 1 1 1 0 0
THIC   29   2 44.5092 0 0 0 1 1 1 0 0
THIC   29   3 53.0211 0 0 0 1 1 1 0 0
