VERS 161019 507 33785
MODE SEQ
NAME JP 2018-045097 Example 2 (Sigma 12-24mm F4 DG HSM A)
NOTE 0 Prepared and converted by Bill Claff.
PFIL 0 0 0
LANG 0
UNIT MM X W X CM MR CPMM
FLOA
ENVD 20 1 0
GFAC 0 0
RAIM 0 2 1 1 0 1 0 0 0
SDMA 0 1 0
FTYP 3 0 3 3 0 0 0
ROPD 2
HYPR 0
PICB 1
XFLN 0 0 0 0 0 0 0 0 0 0 0 0
YFLN 0 15.141 21.63 0 0 0 0 0 0 0 0 0 0
FWGN 1 1 1 1 1 1 1 1 1 1 1 1
VDXN 0 0 0 0 0 0 0 0 0 0 0 0
VDYN 0 0 0 0 0 0 0 0 0 0 0 0
VCXN 0 0 0 0 0 0 0 0 0 0 0 0
VCYN 0 0 0 0 0 0 0 0 0 0 0 0
VANN 0 0 0 0 0 0 0 0 0 0 0 0
WAVM 1 0.4861327 1
WAVM 2 0.5875618 1
WAVM 3 0.6562725 1
WAVM 4 0.550 1
WAVM 5 0.550 1
WAVM 6 0.550 1
WAVM 7 0.550 1
WAVM 8 0.550 1
WAVM 9 0.550 1
WAVM 10 0.550 1
WAVM 11 0.550 1
WAVM 12 0.550 1
WAVM 13 0.550 1
WAVM 14 0.550 1
WAVM 15 0.550 1
WAVM 16 0.550 1
WAVM 17 0.550 1
WAVM 18 0.550 1
WAVM 19 0.550 1
WAVM 20 0.550 1
WAVM 21 0.550 1
WAVM 22 0.550 1
WAVM 23 0.550 1
WAVM 24 0.550 1
PWAV 2
POLS 1 0 1 0 0 1 0
GSTD 0 100 100 100 100 100 100 0 1 1 0 0 1 1 1 1 1 1
NSCD 100 500 0 1.0E-3 5 1.0E-6 0 0 0 0 0 0 1000000 0 2
SURF 0
  TYPE STANDARD
  CURV 0.0 0 0 0 0 ""
  HIDE 0 0 0 0 0 0 0 0 0 0
  MIRR 2 0
  DISZ INFINITY
  DIAM 0 1 0 0 1 ""
  POPS 0 0 0 0 0 0 0 0 1 1 1 1 0 0 0 0
SURF 1
  TYPE EVENASPH
  CURV 0.00748884723425638 0 0 0 0
  HIDE 0 0 0 0 0 0 0 0 0 0
  MIRR 2 0
  PARM 1 0
  PARM 2 7.92621E-06
  PARM 3 -6.39306E-09
  PARM 4 4.45245E-12
  PARM 5 -1.79721E-15
  PARM 6 3.49541E-19
  PARM 7 0
  PARM 8 0
  DISZ  4
  CONI  0
  GLAS  ___BLANK 1 0 1.69090 52.98 0 0 0 0 0 0
  DIAM  40.92 1 0 0 1 ""
  POPS 0 0 0 0 0 0 0 0 1 1 1 1 0 0 0 0
SURF 2
  TYPE STANDARD
  CURV 0.0344598250130086 0 0 0 0
  HIDE 0 0 0 0 0 0 0 0 0 0
  MIRR 2 0
  DISZ  9.0505
  DIAM  27.255 1 0 0 1 ""
  POPS 0 0 0 0 0 0 0 0 1 1 1 1 0 0 0 0
SURF 3
  TYPE STANDARD
  CURV 0.0270996100366116 0 0 0 0
  HIDE 0 0 0 0 0 0 0 0 0 0
  MIRR 2 0
  DISZ  1.5021
  GLAS  ___BLANK 1 0 1.90043 37.37 0 0 0 0 0 0
  DIAM  27.61 1 0 0 1 ""
  POPS 0 0 0 0 0 0 0 0 1 1 1 1 0 0 0 0
SURF 4
  TYPE STANDARD
  CURV 0.0454870066365543 0 0 0 0
  HIDE 0 0 0 0 0 0 0 0 0 0
  MIRR 2 0
  DISZ  10.7139
  DIAM  20.79 1 0 0 1 ""
  POPS 0 0 0 0 0 0 0 0 1 1 1 1 0 0 0 0
SURF 5
  TYPE XASPHERE
  CURV 0.0236748029072658 0 0 0 0
  HIDE 0 0 0 0 0 0 0 0 0 0
  MIRR 2 0
  XDAT 1 11 0 0 1 0 0 ""
  XDAT 2 1 0 0 1 0 0 ""
  XDAT 3 0 0 0 1 0 0 ""
  XDAT 4 -5.37715E-04 0 0 1 0 0 ""
  XDAT 5 2.25403E-04 0 0 1 0 0 ""
  XDAT 6 -4.41792E-05 0 0 1 0 0 ""
  XDAT 7 3.58069E-06 0 0 1 0 0 ""
  XDAT 8 -5.23857E-08 0 0 1 0 0 ""
  XDAT 9 -7.22809E-09 0 0 1 0 0 ""
  XDAT 10 2.01591E-10 0 0 1 0 0 ""
  XDAT 11 1.51557E-11 0 0 1 0 0 ""
  XDAT 12 -8.53398E-13 0 0 1 0 0 ""
  XDAT 13 1.21655E-14 0 0 1 0 0 ""
  DISZ  2
  CONI  0
  GLAS  ___BLANK 1 0 1.59051 66.72 0 0 0 0 0 0
  DIAM  19.93 1 0 0 1 ""
  POPS 0 0 0 0 0 0 0 0 1 1 1 1 0 0 0 0
SURF 6
  TYPE XASPHERE
  CURV 0.049438868838681 0 0 0 0
  HIDE 0 0 0 0 0 0 0 0 0 0
  MIRR 2 0
  XDAT 1 11 0 0 1 0 0 ""
  XDAT 2 1 0 0 1 0 0 ""
  XDAT 3 0 0 0 1 0 0 ""
  XDAT 4 -5.18213E-04 0 0 1 0 0 ""
  XDAT 5 2.38912E-04 0 0 1 0 0 ""
  XDAT 6 -5.17564E-05 0 0 1 0 0 ""
  XDAT 7 5.03353E-06 0 0 1 0 0 ""
  XDAT 8 -2.12648E-07 0 0 1 0 0 ""
  XDAT 9 3.50675E-09 0 0 1 0 0 ""
  XDAT 10 -3.11119E-11 0 0 1 0 0 ""
  XDAT 11 -1.02846E-11 0 0 1 0 0 ""
  XDAT 12 1.08656E-12 0 0 1 0 0 ""
  XDAT 13 -2.80015E-14 0 0 1 0 0 ""
  DISZ  11.6548
  CONI  0
  DIAM  18.085 1 0 0 1 ""
  POPS 0 0 0 0 0 0 0 0 1 1 1 1 0 0 0 0
SURF 7
  TYPE STANDARD
  CURV -0.011622285034216 0 0 0 0
  HIDE 0 0 0 0 0 0 0 0 0 0
  MIRR 2 0
  DISZ  1.1437
  GLAS  ___BLANK 1 0 1.43700 95.10 0 0 0 0 0 0
  DIAM  17.54 1 0 0 1 ""
  POPS 0 0 0 0 0 0 0 0 1 1 1 1 0 0 0 0
SURF 8
  TYPE STANDARD
  CURV 0.0190108647091813 0 0 0 0
  HIDE 0 0 0 0 0 0 0 0 0 0
  MIRR 2 0
  DISZ  2.2862
  DIAM  16.99 1 0 0 1 ""
  POPS 0 0 0 0 0 0 0 0 1 1 1 1 0 0 0 0
SURF 9
  TYPE STANDARD
  CURV 0.010905030272364 0 0 0 0
  HIDE 0 0 0 0 0 0 0 0 0 0
  MIRR 2 0
  DISZ  1.2591
  GLAS  ___BLANK 1 0 1.43700 95.10 0 0 0 0 0 0
  DIAM  17.8 1 0 0 1 ""
  POPS 0 0 0 0 0 0 0 0 1 1 1 1 0 0 0 0
SURF 10
  TYPE STANDARD
  CURV 0.0303938434230762 0 0 0 0
  HIDE 0 0 0 0 0 0 0 0 0 0
  MIRR 2 0
  DISZ  7.1882
  GLAS  ___BLANK 1 0 1.88300 40.80 0 0 0 0 0 0
  DIAM  17.8 1 0 0 1 ""
  POPS 0 0 0 0 0 0 0 0 1 1 1 1 0 0 0 0
SURF 11
  TYPE STANDARD
  CURV 0.000536906092600945 0 0 0 0
  HIDE 0 0 0 0 0 0 0 0 0 0
  MIRR 2 0
  DISZ  34.5864
  DIAM  17.8 1 0 0 1 ""
  POPS 0 0 0 0 0 0 0 0 1 1 1 1 0 0 0 0
SURF 12
  TYPE STANDARD
  CURV 0.0334985930590915 0 0 0 0
  HIDE 0 0 0 0 0 0 0 0 0 0
  MIRR 2 0
  DISZ  3.4522
  GLAS  ___BLANK 1 0 1.51823 58.96 0 0 0 0 0 0
  DIAM  9.43 1 0 0 1 ""
  POPS 0 0 0 0 0 0 0 0 1 1 1 1 0 0 0 0
SURF 13
  TYPE STANDARD
  CURV -0.0140115679504999 0 0 0 0
  HIDE 0 0 0 0 0 0 0 0 0 0
  MIRR 2 0
  DISZ  1.9863
  DIAM  9.43 1 0 0 1 ""
  POPS 0 0 0 0 0 0 0 0 1 1 1 1 0 0 0 0
SURF 14
  STOP
  TYPE STANDARD
  CURV 0 0 0 0 0
  HIDE 0 0 0 0 0 0 0 0 0 0
  MIRR 2 0
  DISZ  2.2734
  DIAM  6.508 1 0 0 1 ""
  POPS 0 0 0 0 0 0 0 0 1 1 1 1 0 0 0 0
SURF 15
  TYPE STANDARD
  CURV -0.00862100922706618 0 0 0 0
  HIDE 0 0 0 0 0 0 0 0 0 0
  MIRR 2 0
  DISZ  6.0384
  GLAS  ___BLANK 1 0 1.64769 33.84 0 0 0 0 0 0
  DIAM  8.92 1 0 0 1 ""
  POPS 0 0 0 0 0 0 0 0 1 1 1 1 0 0 0 0
SURF 16
  TYPE STANDARD
  CURV -0.0496388771685985 0 0 0 0
  HIDE 0 0 0 0 0 0 0 0 0 0
  MIRR 2 0
  DISZ  0.8
  GLAS  ___BLANK 1 0 1.95375 32.32 0 0 0 0 0 0
  DIAM  8.92 1 0 0 1 ""
  POPS 0 0 0 0 0 0 0 0 1 1 1 1 0 0 0 0
SURF 17
  TYPE STANDARD
  CURV 0.0158616860972321 0 0 0 0
  HIDE 0 0 0 0 0 0 0 0 0 0
  MIRR 2 0
  DISZ  2.3712
  GLAS  ___BLANK 1 0 1.92286 20.88 0 0 0 0 0 0
  DIAM  8.92 1 0 0 1 ""
  POPS 0 0 0 0 0 0 0 0 1 1 1 1 0 0 0 0
SURF 18
  TYPE STANDARD
  CURV -0.0105412066308406 0 0 0 0
  HIDE 0 0 0 0 0 0 0 0 0 0
  MIRR 2 0
  DISZ  5.4321
  DIAM  8.92 1 0 0 1 ""
  POPS 0 0 0 0 0 0 0 0 1 1 1 1 0 0 0 0
SURF 19
  TYPE STANDARD
  CURV 0.0162156815369872 0 0 0 0
  HIDE 0 0 0 0 0 0 0 0 0 0
  MIRR 2 0
  DISZ  3.0762
  GLAS  ___BLANK 1 0 1.43700 95.10 0 0 0 0 0 0
  DIAM  8.84 1 0 0 1 ""
  POPS 0 0 0 0 0 0 0 0 1 1 1 1 0 0 0 0
SURF 20
  TYPE STANDARD
  CURV -0.0307720712681171 0 0 0 0
  HIDE 0 0 0 0 0 0 0 0 0 0
  MIRR 2 0
  DISZ  1.5798
  GLAS  ___BLANK 1 0 1.88300 40.80 0 0 0 0 0 0
  DIAM  8.84 1 0 0 1 ""
  POPS 0 0 0 0 0 0 0 0 1 1 1 1 0 0 0 0
SURF 21
  TYPE STANDARD
  CURV 0.00607044754374516 0 0 0 0
  HIDE 0 0 0 0 0 0 0 0 0 0
  MIRR 2 0
  DISZ  0.218
  DIAM  9.6 1 0 0 1 ""
  POPS 0 0 0 0 0 0 0 0 1 1 1 1 0 0 0 0
SURF 22
  TYPE STANDARD
  CURV 0.0420003948037112 0 0 0 0
  HIDE 0 0 0 0 0 0 0 0 0 0
  MIRR 2 0
  DISZ  4.6565
  GLAS  ___BLANK 1 0 1.43700 95.10 0 0 0 0 0 0
  DIAM  10.71 1 0 0 1 ""
  POPS 0 0 0 0 0 0 0 0 1 1 1 1 0 0 0 0
SURF 23
  TYPE STANDARD
  CURV -0.0199746322170843 0 0 0 0
  HIDE 0 0 0 0 0 0 0 0 0 0
  MIRR 2 0
  DISZ  0.15
  DIAM  10.71 1 0 0 1 ""
  POPS 0 0 0 0 0 0 0 0 1 1 1 1 0 0 0 0
SURF 24
  TYPE STANDARD
  CURV 0.0267419720599876 0 0 0 0
  HIDE 0 0 0 0 0 0 0 0 0 0
  MIRR 2 0
  DISZ  0.85
  GLAS  ___BLANK 1 0 1.88300 40.80 0 0 0 0 0 0
  DIAM  11.81 1 0 0 1 ""
  POPS 0 0 0 0 0 0 0 0 1 1 1 1 0 0 0 0
SURF 25
  TYPE STANDARD
  CURV 0.062806969061287 0 0 0 0
  HIDE 0 0 0 0 0 0 0 0 0 0
  MIRR 2 0
  DISZ  7.2421
  GLAS  ___BLANK 1 0 1.43700 95.10 0 0 0 0 0 0
  DIAM  11.81 1 0 0 1 ""
  POPS 0 0 0 0 0 0 0 0 1 1 1 1 0 0 0 0
SURF 26
  TYPE STANDARD
  CURV -0.00845613759150598 0 0 0 0
  HIDE 0 0 0 0 0 0 0 0 0 0
  MIRR 2 0
  DISZ  0.9554
  DIAM  11.81 1 0 0 1 ""
  POPS 0 0 0 0 0 0 0 0 1 1 1 1 0 0 0 0
SURF 27
  TYPE XASPHERE
  CURV -0.0229838033138048 0 0 0 0
  HIDE 0 0 0 0 0 0 0 0 0 0
  MIRR 2 0
  XDAT 1 9 0 0 1 0 0 ""
  XDAT 2 1 0 0 1 0 0 ""
  XDAT 3 0 0 0 1 0 0 ""
  XDAT 4 0 0 0 1 0 0 ""
  XDAT 5 1.99936E-05 0 0 1 0 0 ""
  XDAT 6 0 0 0 1 0 0 ""
  XDAT 7 2.31740E-07 0 0 1 0 0 ""
  XDAT 8 0 0 0 1 0 0 ""
  XDAT 9 -2.33328E-09 0 0 1 0 0 ""
  XDAT 10 0 0 0 1 0 0 ""
  XDAT 11 9.97910E-13 0 0 1 0 0 ""
  DISZ  1.7137
  CONI  0
  GLAS  ___BLANK 1 0 1.55232 71.54 0 0 0 0 0 0
  DIAM  12.15 1 0 0 1 ""
  POPS 0 0 0 0 0 0 0 0 1 1 1 1 0 0 0 0
SURF 28
  TYPE XASPHERE
  CURV -0.0290995437191545 0 0 0 0
  HIDE 0 0 0 0 0 0 0 0 0 0
  MIRR 2 0
  XDAT 1 9 0 0 1 0 0 ""
  XDAT 2 1 0 0 1 0 0 ""
  XDAT 3 0 0 0 1 0 0 ""
  XDAT 4 0 0 0 1 0 0 ""
  XDAT 5 3.52523E-05 0 0 1 0 0 ""
  XDAT 6 0 0 0 1 0 0 ""
  XDAT 7 2.77610E-07 0 0 1 0 0 ""
  XDAT 8 0 0 0 1 0 0 ""
  XDAT 9 -2.40330E-09 0 0 1 0 0 ""
  XDAT 10 0 0 0 1 0 0 ""
  XDAT 11 2.52463E-12 0 0 1 0 0 ""
  DISZ  36.7415
  CONI  0
  DIAM  12.15 1 0 0 1 ""
  POPS 0 0 0 0 0 0 0 0 1 1 1 1 0 0 0 0
SURF 29
  TYPE STANDARD
  CURV 0 0 0 0 0
  HIDE 0 0 0 0 0 0 0 0 0 0
  MIRR 2 0
  DISZ  1.45
  GLAS  ___BLANK 1 0 1.52301 58.59 0 0 0 0 0 0
  DIAM  22.63 1 0 0 1 ""
  POPS 0 0 0 0 0 0 0 0 1 1 1 1 0 0 0 0
SURF 30
  TYPE STANDARD
  CURV 0 0 0 0 0
  HIDE 0 0 0 0 0 0 0 0 0 0
  MIRR 2 0
  DISZ  1.5104
  DIAM  22.63 1 0 0 1 ""
  POPS 0 0 0 0 0 0 0 0 1 1 1 1 0 0 0 0
SURF 31
  TYPE STANDARD
  CURV 0.0 0 0 0 0 ""
  HIDE 0 0 0 0 0 0 0 0 0 0
  MIRR 2 0
  DISZ 0
  DIAM 21.63 1 0 0 1 ""
  POPS 0 0 0 0 0 0 0 0 1 1 1 1 0 0 0 0
TOL TOFF   0   0              0              0   0 0 0 0
MNUM 6 1
SDIA   14   1 6.508 0 0 0 1 1 1 0 0
SDIA   14   2 7.2005 0 0 0 1 1 1 0 0
SDIA   14   3 8.0485 0 0 0 1 1 1 0 0
SDIA   14   4 6.508 0 0 0 1 1 1 0 0
SDIA   14   5 7.2005 0 0 0 1 1 1 0 0
SDIA   14   6 8.0485 0 0 0 1 1 1 0 0
THIC   0   1 1.00E+10 0 0 0 1 1 1 0 0
THIC   0   2 1.00E+10 0 0 0 1 1 1 0 0
THIC   0   3 1.00E+10 0 0 0 1 1 1 0 0
THIC   0   4 465.4085 0 0 0 1 1 1 0 0
THIC   0   5 639.2961 0 0 0 1 1 1 0 0
THIC   0   6 894.6208 0 0 0 1 1 1 0 0
THIC   11   1 34.5864 0 0 0 1 1 1 0 0
THIC   11   2 16.4855 0 0 0 1 1 1 0 0
THIC   11   3 1.6422 0 0 0 1 1 1 0 0
THIC   11   4 35.6759 0 0 0 1 1 1 0 0
THIC   11   5 17.1996 0 0 0 1 1 1 0 0
THIC   11   6 2.1665 0 0 0 1 1 1 0 0
THIC   18   1 5.4321 0 0 0 1 1 1 0 0
THIC   18   2 5.8016 0 0 0 1 1 1 0 0
THIC   18   3 6.4075 0 0 0 1 1 1 0 0
THIC   18   4 4.3427 0 0 0 1 1 1 0 0
THIC   18   5 5.0874 0 0 0 1 1 1 0 0
THIC   18   6 5.8832 0 0 0 1 1 1 0 0
THIC   30   1 1.5104 0 0 0 1 1 1 0 0
THIC   30   2 9.3633 0 0 0 1 1 1 0 0
THIC   30   3 21.3709 0 0 0 1 1 1 0 0
THIC   30   4 1.5103 0 0 0 1 1 1 0 0
THIC   30   5 9.3633 0 0 0 1 1 1 0 0
THIC   30   6 21.3709 0 0 0 1 1 1 0 0
