VERS 161019 507 33785
MODE SEQ
NAME JP 2019-211703 Example 1 (Sigma 45mm F2.8 DG DN C)
NOTE 0 Prepared and converted by Bill Claff.
PFIL 0 0 0
LANG 0
UNIT MM X W X CM MR CPMM
FNUM 2.9 0
ENVD 20 1 0
GFAC 0 0
RAIM 0 2 1 1 0 1 0 0 0
SDMA 0 1 0
FTYP 3 0 3 3 0 0 0
ROPD 2
HYPR 0
PICB 1
XFLN 0 0 0 0 0 0 0 0 0 0 0 0
YFLN 0 15.141 21.63 0 0 0 0 0 0 0 0 0 0
FWGN 1 1 1 1 1 1 1 1 1 1 1 1
VDXN 0 0 0 0 0 0 0 0 0 0 0 0
VDYN 0 0 0 0 0 0 0 0 0 0 0 0
VCXN 0 0 0 0 0 0 0 0 0 0 0 0
VCYN 0 0 0 0 0 0 0 0 0 0 0 0
VANN 0 0 0 0 0 0 0 0 0 0 0 0
WAVM 1 0.4861327 1
WAVM 2 0.5875618 1
WAVM 3 0.6562725 1
WAVM 4 0.550 1
WAVM 5 0.550 1
WAVM 6 0.550 1
WAVM 7 0.550 1
WAVM 8 0.550 1
WAVM 9 0.550 1
WAVM 10 0.550 1
WAVM 11 0.550 1
WAVM 12 0.550 1
WAVM 13 0.550 1
WAVM 14 0.550 1
WAVM 15 0.550 1
WAVM 16 0.550 1
WAVM 17 0.550 1
WAVM 18 0.550 1
WAVM 19 0.550 1
WAVM 20 0.550 1
WAVM 21 0.550 1
WAVM 22 0.550 1
WAVM 23 0.550 1
WAVM 24 0.550 1
PWAV 2
POLS 1 0 1 0 0 1 0
GSTD 0 100 100 100 100 100 100 0 1 1 0 0 1 1 1 1 1 1
NSCD 100 500 0 1.0E-3 5 1.0E-6 0 0 0 0 0 0 1000000 0 2
SURF 0
  TYPE STANDARD
  CURV 0.0 0 0 0 0 ""
  HIDE 0 0 0 0 0 0 0 0 0 0
  MIRR 2 0
  DISZ INFINITY
  DIAM 0 1 0 0 1 ""
  POPS 0 0 0 0 0 0 0 0 1 1 1 1 0 0 0 0
SURF 1
  TYPE XASPHERE
  CURV 0.0427933807198703 0 0 0 0
  HIDE 0 0 0 0 0 0 0 0 0 0
  MIRR 2 0
  XDAT 1 9 0 0 1 0 0 ""
  XDAT 2 1 0 0 1 0 0 ""
  XDAT 3 0 0 0 1 0 0 ""
  XDAT 4 -1.0943E-05 0 0 1 0 0 ""
  XDAT 5 -9.0526E-08 0 0 1 0 0 ""
  XDAT 6 3.3856E-09 0 0 1 0 0 ""
  XDAT 7 -6.8374E-11 0 0 1 0 0 ""
  XDAT 8 7.5676E-13 0 0 1 0 0 ""
  XDAT 9 -4.8496E-15 0 0 1 0 0 ""
  XDAT 10 1.5425E-17 0 0 1 0 0 ""
  XDAT 11 -1.8709E-20 0 0 1 0 0 ""
  DISZ  3.7585
  CONI  0.7548
  GLAS  ___BLANK 1 0 1.77250 49.50 0 0 0 0 0 0
  DIAM  10.005 1 0 0 1 ""
  POPS 0 0 0 0 0 0 0 0 1 1 1 1 0 0 0 0
SURF 2
  TYPE XASPHERE
  CURV 0.0069388885149599 0 0 0 0
  HIDE 0 0 0 0 0 0 0 0 0 0
  MIRR 2 0
  XDAT 1 9 0 0 1 0 0 ""
  XDAT 2 1 0 0 1 0 0 ""
  XDAT 3 0 0 0 1 0 0 ""
  XDAT 4 -2.3116E-06 0 0 1 0 0 ""
  XDAT 5 1.4773E-07 0 0 1 0 0 ""
  XDAT 6 -4.0502E-09 0 0 1 0 0 ""
  XDAT 7 7.7863E-11 0 0 1 0 0 ""
  XDAT 8 -9.6225E-13 0 0 1 0 0 ""
  XDAT 9 6.3690E-15 0 0 1 0 0 ""
  XDAT 10 -2.0898E-17 0 0 1 0 0 ""
  XDAT 11 2.6920E-20 0 0 1 0 0 ""
  DISZ  0.308
  CONI  0
  DIAM  9.15 1 0 0 1 ""
  POPS 0 0 0 0 0 0 0 0 1 1 1 1 0 0 0 0
SURF 3
  TYPE STANDARD
  CURV 0.0221613523743673 0 0 0 0
  HIDE 0 0 0 0 0 0 0 0 0 0
  MIRR 2 0
  DISZ  0.8
  GLAS  ___BLANK 1 0 1.51742 52.15 0 0 0 0 0 0
  DIAM  8.37 1 0 0 1 ""
  POPS 0 0 0 0 0 0 0 0 1 1 1 1 0 0 0 0
SURF 4
  TYPE STANDARD
  CURV 0.0611725555446804 0 0 0 0
  HIDE 0 0 0 0 0 0 0 0 0 0
  MIRR 2 0
  DISZ  4.6499
  DIAM  7.29 1 0 0 1 ""
  POPS 0 0 0 0 0 0 0 0 1 1 1 1 0 0 0 0
SURF 5
  STOP
  TYPE STANDARD
  CURV 0 0 0 0 0
  HIDE 0 0 0 0 0 0 0 0 0 0
  MIRR 2 0
  DISZ  8.3114
  DIAM  6.45 1 0 0 1 ""
  POPS 0 0 0 0 0 0 0 0 1 1 1 1 0 0 0 0
SURF 6
  TYPE STANDARD
  CURV -0.0818799639728159 0 0 0 0
  HIDE 0 0 0 0 0 0 0 0 0 0
  MIRR 2 0
  DISZ  0.8
  GLAS  ___BLANK 1 0 1.69895 30.05 0 0 0 0 0 0
  DIAM  6.425 1 0 0 1 ""
  POPS 0 0 0 0 0 0 0 0 1 1 1 1 0 0 0 0
SURF 7
  TYPE STANDARD
  CURV 0.0179659975530311 0 0 0 0
  HIDE 0 0 0 0 0 0 0 0 0 0
  MIRR 2 0
  DISZ  4.2213
  GLAS  ___BLANK 1 0 1.87070 40.73 0 0 0 0 0 0
  DIAM  7.27 1 0 0 1 ""
  POPS 0 0 0 0 0 0 0 0 1 1 1 1 0 0 0 0
SURF 8
  TYPE STANDARD
  CURV -0.0530918010331665 0 0 0 0
  HIDE 0 0 0 0 0 0 0 0 0 0
  MIRR 2 0
  DISZ  0.15
  DIAM  7.8 1 0 0 1 ""
  POPS 0 0 0 0 0 0 0 0 1 1 1 1 0 0 0 0
SURF 9
  TYPE XASPHERE
  CURV 0.0266836730609642 0 0 0 0
  HIDE 0 0 0 0 0 0 0 0 0 0
  MIRR 2 0
  XDAT 1 9 0 0 1 0 0 ""
  XDAT 2 1 0 0 1 0 0 ""
  XDAT 3 0 0 0 1 0 0 ""
  XDAT 4 -2.4796E-06 0 0 1 0 0 ""
  XDAT 5 -9.6746E-09 0 0 1 0 0 ""
  XDAT 6 -5.6804E-10 0 0 1 0 0 ""
  XDAT 7 3.7440E-11 0 0 1 0 0 ""
  XDAT 8 -7.5858E-13 0 0 1 0 0 ""
  XDAT 9 7.5576E-15 0 0 1 0 0 ""
  XDAT 10 -3.5787E-17 0 0 1 0 0 ""
  XDAT 11 6.4474E-20 0 0 1 0 0 ""
  DISZ  4.7493
  CONI  -2.3178
  GLAS  ___BLANK 1 0 1.58913 61.25 0 0 0 0 0 0
  DIAM  8.95 1 0 0 1 ""
  POPS 0 0 0 0 0 0 0 0 1 1 1 1 0 0 0 0
SURF 10
  TYPE XASPHERE
  CURV -0.0417167267387532 0 0 0 0
  HIDE 0 0 0 0 0 0 0 0 0 0
  MIRR 2 0
  XDAT 1 9 0 0 1 0 0 ""
  XDAT 2 1 0 0 1 0 0 ""
  XDAT 3 0 0 0 1 0 0 ""
  XDAT 4 -4.7357E-06 0 0 1 0 0 ""
  XDAT 5 1.5970E-08 0 0 1 0 0 ""
  XDAT 6 3.7484E-10 0 0 1 0 0 ""
  XDAT 7 -1.2512E-11 0 0 1 0 0 ""
  XDAT 8 2.6612E-13 0 0 1 0 0 ""
  XDAT 9 -3.0274E-15 0 0 1 0 0 ""
  XDAT 10 1.8357E-17 0 0 1 0 0 ""
  XDAT 11 -4.2619E-20 0 0 1 0 0 ""
  DISZ  1.7666
  CONI  -2.65
  DIAM  9.25 1 0 0 1 ""
  POPS 0 0 0 0 0 0 0 0 1 1 1 1 0 0 0 0
SURF 11
  TYPE STANDARD
  CURV 0.00911995199257271 0 0 0 0
  HIDE 0 0 0 0 0 0 0 0 0 0
  MIRR 2 0
  DISZ  0.9857
  GLAS  ___BLANK 1 0 1.67300 38.26 0 0 0 0 0 0
  DIAM  9.485 1 0 0 1 ""
  POPS 0 0 0 0 0 0 0 0 1 1 1 1 0 0 0 0
SURF 12
  TYPE STANDARD
  CURV 0.0472072208164961 0 0 0 0
  HIDE 0 0 0 0 0 0 0 0 0 0
  MIRR 2 0
  DISZ  8.7012
  DIAM  9.6 1 0 0 1 ""
  POPS 0 0 0 0 0 0 0 0 1 1 1 1 0 0 0 0
SURF 13
  TYPE STANDARD
  CURV -0.0506703689816269 0 0 0 0
  HIDE 0 0 0 0 0 0 0 0 0 0
  MIRR 2 0
  DISZ  0.8
  GLAS  ___BLANK 1 0 1.75211 25.05 0 0 0 0 0 0
  DIAM  10.935 1 0 0 1 ""
  POPS 0 0 0 0 0 0 0 0 1 1 1 1 0 0 0 0
SURF 14
  TYPE STANDARD
  CURV -0.0333841885806045 0 0 0 0
  HIDE 0 0 0 0 0 0 0 0 0 0
  MIRR 2 0
  DISZ  0.15
  DIAM  11.83 1 0 0 1 ""
  POPS 0 0 0 0 0 0 0 0 1 1 1 1 0 0 0 0
SURF 15
  TYPE STANDARD
  CURV 0.0104313248512754 0 0 0 0
  HIDE 0 0 0 0 0 0 0 0 0 0
  MIRR 2 0
  DISZ  2.5968
  GLAS  ___BLANK 1 0 1.98612 16.48 0 0 0 0 0 0
  DIAM  14.1 1 0 0 1 ""
  POPS 0 0 0 0 0 0 0 0 1 1 1 1 0 0 0 0
SURF 16
  TYPE STANDARD
  CURV -0.00172204030779748 0 0 0 0
  HIDE 0 0 0 0 0 0 0 0 0 0
  MIRR 2 0
  DISZ  16.3216
  DIAM  14.36 1 0 0 1 ""
  POPS 0 0 0 0 0 0 0 0 1 1 1 1 0 0 0 0
SURF 17
  TYPE STANDARD
  CURV 0 0 0 0 0
  HIDE 0 0 0 0 0 0 0 0 0 0
  MIRR 2 0
  DISZ  2.5
  GLAS  ___BLANK 1 0 1.51633 64.14 0 0 0 0 0 0
  DIAM  24.625 1 0 0 1 ""
  POPS 0 0 0 0 0 0 0 0 1 1 1 1 0 0 0 0
SURF 18
  TYPE STANDARD
  CURV 0 0 0 0 0
  HIDE 0 0 0 0 0 0 0 0 0 0
  MIRR 2 0
  DISZ  2
  DIAM  24.625 1 0 0 1 ""
  POPS 0 0 0 0 0 0 0 0 1 1 1 1 0 0 0 0
SURF 19
  TYPE STANDARD
  CURV 0.0 0 0 0 0 ""
  HIDE 0 0 0 0 0 0 0 0 0 0
  MIRR 2 0
  DISZ 0
  DIAM 21.63 1 0 0 1 ""
  POPS 0 0 0 0 0 0 0 0 1 1 1 1 0 0 0 0
TOL TOFF   0   0              0              0   0 0 0 0
MNUM 2 1
THIC   0   1 1.00E+10 0 0 0 1 1 1 0 0
THIC   0   2 172.6297 0 0 0 1 1 1 0 0
THIC   5   1 8.3114 0 0 0 1 1 1 0 0
THIC   5   2 4.8314 0 0 0 1 1 1 0 0
THIC   10   1 1.7666 0 0 0 1 1 1 0 0
THIC   10   2 5.2466 0 0 0 1 1 1 0 0
