VERS 161019 507 33785
MODE SEQ
NAME JP 2000-321497 Example 1 (Nikon AF Zoom-Nikkor 24-85mm f/2.8-4D IF)
NOTE 0 Prepared and converted by Bill Claff.
PFIL 0 0 0
LANG 0
UNIT MM X W X CM MR CPMM
FNUM 2.79 0
ENVD 20 1 0
GFAC 0 0
RAIM 0 2 1 1 0 1 0 0 0
SDMA 0 1 0
FTYP 3 0 3 3 0 0 0
ROPD 2
HYPR 0
PICB 1
XFLN 0 0 0 0 0 0 0 0 0 0 0 0
YFLN 0 15.12 21.6 0 0 0 0 0 0 0 0 0 0
FWGN 1 1 1 1 1 1 1 1 1 1 1 1
VDXN 0 0 0 0 0 0 0 0 0 0 0 0
VDYN 0 0 0 0 0 0 0 0 0 0 0 0
VCXN 0 0 0 0 0 0 0 0 0 0 0 0
VCYN 0 0 0 0 0 0 0 0 0 0 0 0
VANN 0 0 0 0 0 0 0 0 0 0 0 0
WAVM 1 0.4861327 1
WAVM 2 0.5875618 1
WAVM 3 0.6562725 1
WAVM 4 0.550 1
WAVM 5 0.550 1
WAVM 6 0.550 1
WAVM 7 0.550 1
WAVM 8 0.550 1
WAVM 9 0.550 1
WAVM 10 0.550 1
WAVM 11 0.550 1
WAVM 12 0.550 1
WAVM 13 0.550 1
WAVM 14 0.550 1
WAVM 15 0.550 1
WAVM 16 0.550 1
WAVM 17 0.550 1
WAVM 18 0.550 1
WAVM 19 0.550 1
WAVM 20 0.550 1
WAVM 21 0.550 1
WAVM 22 0.550 1
WAVM 23 0.550 1
WAVM 24 0.550 1
PWAV 2
POLS 1 0 1 0 0 1 0
GSTD 0 100 100 100 100 100 100 0 1 1 0 0 1 1 1 1 1 1
NSCD 100 500 0 1.0E-3 5 1.0E-6 0 0 0 0 0 0 1000000 0 2
SURF 0
  TYPE STANDARD
  CURV 0.0 0 0 0 0 ""
  HIDE 0 0 0 0 0 0 0 0 0 0
  MIRR 2 0
  DISZ INFINITY
  DIAM 0 1 0 0 1 ""
  POPS 0 0 0 0 0 0 0 0 1 1 1 1 0 0 0 0
SURF 1
  TYPE STANDARD
  CURV 0.00118580454407416 0 0 0 0
  HIDE 0 0 0 0 0 0 0 0 0 0
  MIRR 2 0
  DISZ  1.8
  GLAS  ___BLANK 1 0 1.846660 23.78 0 0 0 0 0 0
  DIAM  31.31 1 0 0 1 ""
  POPS 0 0 0 0 0 0 0 0 1 1 1 1 0 0 0 0
SURF 2
  TYPE STANDARD
  CURV 0.0113672144527311 0 0 0 0
  HIDE 0 0 0 0 0 0 0 0 0 0
  MIRR 2 0
  DISZ  7.6
  GLAS  ___BLANK 1 0 1.755000 52.32 0 0 0 0 0 0
  DIAM  30.03 1 0 0 1 ""
  POPS 0 0 0 0 0 0 0 0 1 1 1 1 0 0 0 0
SURF 3
  TYPE STANDARD
  CURV -0.00262931358613658 0 0 0 0
  HIDE 0 0 0 0 0 0 0 0 0 0
  MIRR 2 0
  DISZ  0.1
  DIAM  30.03 1 0 0 1 ""
  POPS 0 0 0 0 0 0 0 0 1 1 1 1 0 0 0 0
SURF 4
  TYPE STANDARD
  CURV 0.0202859507619403 0 0 0 0
  HIDE 0 0 0 0 0 0 0 0 0 0
  MIRR 2 0
  DISZ  5.6
  GLAS  ___BLANK 1 0 1.755000 52.32 0 0 0 0 0 0
  DIAM  25.44 1 0 0 1 ""
  POPS 0 0 0 0 0 0 0 0 1 1 1 1 0 0 0 0
SURF 5
  TYPE STANDARD
  CURV 0.00773900364971412 0 0 0 0
  HIDE 0 0 0 0 0 0 0 0 0 0
  MIRR 2 0
  DISZ  2.47033
  DIAM  25.44 1 0 0 1 ""
  POPS 0 0 0 0 0 0 0 0 1 1 1 1 0 0 0 0
SURF 6
  TYPE XOSPHERE
  CURV -0.00458606204024728 0 0 0 0
  HIDE 0 0 0 0 0 0 0 0 0 0
  MIRR 2 0
  XDAT 1 14 0 0 1 0 0 ""
  XDAT 2 1 0 0 1 0 0 ""
  XDAT 3 0 0 0 1 0 0 ""
  XDAT 4 0 0 0 1 0 0 ""
  XDAT 5 -1.3978E-05 0 0 1 0 0 ""
  XDAT 6 2.5777E-05 0 0 1 0 0 ""
  XDAT 7 0.0000E+00 0 0 1 0 0 ""
  XDAT 8 -5.9863E-08 0 0 1 0 0 ""
  XDAT 9 0 0 0 1 0 0 ""
  XDAT 10 1.7443E-10 0 0 1 0 0 ""
  XDAT 11 0 0 0 1 0 0 ""
  XDAT 12 -3.1895E-14 0 0 1 0 0 ""
  XDAT 13 0 0 0 1 0 0 ""
  XDAT 14 -1.6029E-15 0 0 1 0 0 ""
  XDAT 15 0 0 0 1 0 0 ""
  XDAT 16 3.4996E-18 0 0 1 0 0 ""
  DISZ  0.06
  CONI  100
  GLAS  ___BLANK 1 0 1.495210 56.34 0 0 0 0 0 0
  DIAM  16.48 1 0 0 1 ""
  POPS 0 0 0 0 0 0 0 0 1 1 1 1 0 0 0 0
SURF 7
  TYPE STANDARD
  CURV 0.004 0 0 0 0
  HIDE 0 0 0 0 0 0 0 0 0 0
  MIRR 2 0
  DISZ  1.8
  GLAS  ___BLANK 1 0 1.834810 42.72 0 0 0 0 0 0
  DIAM  16.48 1 0 0 1 ""
  POPS 0 0 0 0 0 0 0 0 1 1 1 1 0 0 0 0
SURF 8
  TYPE STANDARD
  CURV 0.0622692147229331 0 0 0 0
  HIDE 0 0 0 0 0 0 0 0 0 0
  MIRR 2 0
  DISZ  6.1
  DIAM  11.515 1 0 0 1 ""
  POPS 0 0 0 0 0 0 0 0 1 1 1 1 0 0 0 0
SURF 9
  TYPE STANDARD
  CURV -0.0181033156222562 0 0 0 0
  HIDE 0 0 0 0 0 0 0 0 0 0
  MIRR 2 0
  DISZ  1.3
  GLAS  ___BLANK 1 0 1.741000 52.67 0 0 0 0 0 0
  DIAM  11.515 1 0 0 1 ""
  POPS 0 0 0 0 0 0 0 0 1 1 1 1 0 0 0 0
SURF 10
  TYPE STANDARD
  CURV 0.022344321525849 0 0 0 0
  HIDE 0 0 0 0 0 0 0 0 0 0
  MIRR 2 0
  DISZ  0.1
  DIAM  11.89 1 0 0 1 ""
  POPS 0 0 0 0 0 0 0 0 1 1 1 1 0 0 0 0
SURF 11
  TYPE STANDARD
  CURV 0.0324562570795211 0 0 0 0
  HIDE 0 0 0 0 0 0 0 0 0 0
  MIRR 2 0
  DISZ  7.3
  GLAS  ___BLANK 1 0 1.740770 27.79 0 0 0 0 0 0
  DIAM  10.93 1 0 0 1 ""
  POPS 0 0 0 0 0 0 0 0 1 1 1 1 0 0 0 0
SURF 12
  TYPE STANDARD
  CURV -0.0587744354715473 0 0 0 0
  HIDE 0 0 0 0 0 0 0 0 0 0
  MIRR 2 0
  DISZ  1.3
  GLAS  ___BLANK 1 0 1.804000 46.58 0 0 0 0 0 0
  DIAM  10.93 1 0 0 1 ""
  POPS 0 0 0 0 0 0 0 0 1 1 1 1 0 0 0 0
SURF 13
  TYPE STANDARD
  CURV -0.020333758308882 0 0 0 0
  HIDE 0 0 0 0 0 0 0 0 0 0
  MIRR 2 0
  DISZ  2.6
  DIAM  10.93 1 0 0 1 ""
  POPS 0 0 0 0 0 0 0 0 1 1 1 1 0 0 0 0
SURF 14
  TYPE STANDARD
  CURV -0.0454979753400974 0 0 0 0
  HIDE 0 0 0 0 0 0 0 0 0 0
  MIRR 2 0
  DISZ  1
  GLAS  ___BLANK 1 0 1.743200 49.32 0 0 0 0 0 0
  DIAM  9.76 1 0 0 1 ""
  POPS 0 0 0 0 0 0 0 0 1 1 1 1 0 0 0 0
SURF 15
  TYPE STANDARD
  CURV -0.0186751127976813 0 0 0 0
  HIDE 0 0 0 0 0 0 0 0 0 0
  MIRR 2 0
  DISZ  12.21507
  DIAM  9.76 1 0 0 1 ""
  POPS 0 0 0 0 0 0 0 0 1 1 1 1 0 0 0 0
SURF 16
  STOP
  TYPE STANDARD
  CURV 0 0 0 0 0
  HIDE 0 0 0 0 0 0 0 0 0 0
  MIRR 2 0
  DISZ  1
  DIAM  9.6405 1 0 0 1 ""
  POPS 0 0 0 0 0 0 0 0 1 1 1 1 0 0 0 0
SURF 17
  TYPE STANDARD
  CURV 0.0158153525953784 0 0 0 0
  HIDE 0 0 0 0 0 0 0 0 0 0
  MIRR 2 0
  DISZ  3
  GLAS  ___BLANK 1 0 1.603000 65.47 0 0 0 0 0 0
  DIAM  10.93 1 0 0 1 ""
  POPS 0 0 0 0 0 0 0 0 1 1 1 1 0 0 0 0
SURF 18
  TYPE STANDARD
  CURV -0.00920772159532984 0 0 0 0
  HIDE 0 0 0 0 0 0 0 0 0 0
  MIRR 2 0
  DISZ  0.1
  DIAM  10.93 1 0 0 1 ""
  POPS 0 0 0 0 0 0 0 0 1 1 1 1 0 0 0 0
SURF 19
  TYPE STANDARD
  CURV 0.0392789947719658 0 0 0 0
  HIDE 0 0 0 0 0 0 0 0 0 0
  MIRR 2 0
  DISZ  7.5
  GLAS  ___BLANK 1 0 1.603000 65.47 0 0 0 0 0 0
  DIAM  11.47 1 0 0 1 ""
  POPS 0 0 0 0 0 0 0 0 1 1 1 1 0 0 0 0
SURF 20
  TYPE STANDARD
  CURV -0.0456775348747979 0 0 0 0
  HIDE 0 0 0 0 0 0 0 0 0 0
  MIRR 2 0
  DISZ  1.6
  GLAS  ___BLANK 1 0 1.834000 37.17 0 0 0 0 0 0
  DIAM  11.47 1 0 0 1 ""
  POPS 0 0 0 0 0 0 0 0 1 1 1 1 0 0 0 0
SURF 21
  TYPE STANDARD
  CURV 0.00367030797921284 0 0 0 0
  HIDE 0 0 0 0 0 0 0 0 0 0
  MIRR 2 0
  DISZ  5.32672
  DIAM  11.47 1 0 0 1 ""
  POPS 0 0 0 0 0 0 0 0 1 1 1 1 0 0 0 0
SURF 22
  TYPE STANDARD
  CURV 0.0272513721065856 0 0 0 0
  HIDE 0 0 0 0 0 0 0 0 0 0
  MIRR 2 0
  DISZ  6.4
  GLAS  ___BLANK 1 0 1.743200 49.32 0 0 0 0 0 0
  DIAM  11.36 1 0 0 1 ""
  POPS 0 0 0 0 0 0 0 0 1 1 1 1 0 0 0 0
SURF 23
  TYPE STANDARD
  CURV -0.0272513721065856 0 0 0 0
  HIDE 0 0 0 0 0 0 0 0 0 0
  MIRR 2 0
  DISZ  0.2
  DIAM  11.36 1 0 0 1 ""
  POPS 0 0 0 0 0 0 0 0 1 1 1 1 0 0 0 0
SURF 24
  TYPE XOSPHERE
  CURV 0.00798074406073027 0 0 0 0
  HIDE 0 0 0 0 0 0 0 0 0 0
  MIRR 2 0
  XDAT 1 12 0 0 1 0 0 ""
  XDAT 2 1 0 0 1 0 0 ""
  XDAT 3 0 0 0 1 0 0 ""
  XDAT 4 0 0 0 1 0 0 ""
  XDAT 5 -5.9892E-06 0 0 1 0 0 ""
  XDAT 6 -3.0023E-05 0 0 1 0 0 ""
  XDAT 7 2.2049E-08 0 0 1 0 0 ""
  XDAT 8 -5.7120E-08 0 0 1 0 0 ""
  XDAT 9 0 0 0 1 0 0 ""
  XDAT 10 -3.8454E-10 0 0 1 0 0 ""
  XDAT 11 0 0 0 1 0 0 ""
  XDAT 12 7.1889E-12 0 0 1 0 0 ""
  XDAT 13 0 0 0 1 0 0 ""
  XDAT 14 -3.6321E-14 0 0 1 0 0 ""
  DISZ  1.8
  CONI  -16.7909
  GLAS  ___BLANK 1 0 1.744429 49.52 0 0 0 0 0 0
  DIAM  9.55 1 0 0 1 ""
  POPS 0 0 0 0 0 0 0 0 1 1 1 1 0 0 0 0
SURF 25
  TYPE STANDARD
  CURV 0.0289775279270925 0 0 0 0
  HIDE 0 0 0 0 0 0 0 0 0 0
  MIRR 2 0
  DISZ  2
  DIAM  9.55 1 0 0 1 ""
  POPS 0 0 0 0 0 0 0 0 1 1 1 1 0 0 0 0
SURF 26
  TYPE STANDARD
  CURV -0.0128699134884415 0 0 0 0
  HIDE 0 0 0 0 0 0 0 0 0 0
  MIRR 2 0
  DISZ  1.5
  GLAS  ___BLANK 1 0 1.834000 37.17 0 0 0 0 0 0
  DIAM  10.93 1 0 0 1 ""
  POPS 0 0 0 0 0 0 0 0 1 1 1 1 0 0 0 0
SURF 27
  TYPE STANDARD
  CURV 0.0579015326535693 0 0 0 0
  HIDE 0 0 0 0 0 0 0 0 0 0
  MIRR 2 0
  DISZ  6.4
  GLAS  ___BLANK 1 0 1.617200 54.01 0 0 0 0 0 0
  DIAM  10.93 1 0 0 1 ""
  POPS 0 0 0 0 0 0 0 0 1 1 1 1 0 0 0 0
SURF 28
  TYPE STANDARD
  CURV -0.0216975748620577 0 0 0 0
  HIDE 0 0 0 0 0 0 0 0 0 0
  MIRR 2 0
  DISZ  37.98862
  DIAM  10.93 1 0 0 1 ""
  POPS 0 0 0 0 0 0 0 0 1 1 1 1 0 0 0 0
SURF 29
  TYPE STANDARD
  CURV 0.0 0 0 0 0 ""
  HIDE 0 0 0 0 0 0 0 0 0 0
  MIRR 2 0
  DISZ 0
  DIAM 21.6 1 0 0 1 ""
  POPS 0 0 0 0 0 0 0 0 1 1 1 1 0 0 0 0
TOL TOFF   0   0              0              0   0 0 0 0
MNUM 11 1
THIC   0   1 1.00E+10 0 0 0 1 1 1 0 0
THIC   0   2 1.00E+10 0 0 0 1 1 1 0 0
THIC   0   3 1.00E+10 0 0 0 1 1 1 0 0
THIC   0   4 698.89 0 0 0 1 1 1 0 0
THIC   0   5 1415.22 0 0 0 1 1 1 0 0
THIC   0   6 2312.23 0 0 0 1 1 1 0 0
THIC   0   7 372.79 0 0 0 1 1 1 0 0
THIC   0   8 351.52 0 0 0 1 1 1 0 0
THIC   0   9 333.09 0 0 0 1 1 1 0 0
THIC   0   10 33.32 0 0 0 1 1 1 0 0
THIC   0   11 43.45 0 0 0 1 1 1 0 0
THIC   5   1 2.47033 0 0 0 1 1 1 0 0
THIC   5   2 16.71393 0 0 0 1 1 1 0 0
THIC   5   3 29.30687 0 0 0 1 1 1 0 0
THIC   5   4 1.96836 0 0 0 1 1 1 0 0
THIC   5   5 16.27860 0 0 0 1 1 1 0 0
THIC   5   6 28.77817 0 0 0 1 1 1 0 0
THIC   5   7 1.57789 0 0 0 1 1 1 0 0
THIC   5   8 15.23959 0 0 0 1 1 1 0 0
THIC   5   9 26.75685 0 0 0 1 1 1 0 0
THIC   5   10 10.90021 0 0 0 1 1 1 0 0
THIC   5   11 22.71918 0 0 0 1 1 1 0 0
THIC   15   1 12.21507 0 0 0 1 1 1 0 0
THIC   15   2 4.35255 0 0 0 1 1 1 0 0
THIC   15   3 0.86585 0 0 0 1 1 1 0 0
THIC   15   4 12.71704 0 0 0 1 1 1 0 0
THIC   15   5 4.78788 0 0 0 1 1 1 0 0
THIC   15   6 1.39455 0 0 0 1 1 1 0 0
THIC   15   7 13.10751 0 0 0 1 1 1 0 0
THIC   15   8 5.82689 0 0 0 1 1 1 0 0
THIC   15   9 3.41587 0 0 0 1 1 1 0 0
THIC   15   10 10.16627 0 0 0 1 1 1 0 0
THIC   15   11 7.45354 0 0 0 1 1 1 0 0
THIC   21   1 5.32672 0 0 0 1 1 1 0 0
THIC   21   2 1.81712 0 0 0 1 1 1 0 0
THIC   21   3 0.79966 0 0 0 1 1 1 0 0
THIC   21   4 5.32672 0 0 0 1 1 1 0 0
THIC   21   5 1.81712 0 0 0 1 1 1 0 0
THIC   21   6 0.79966 0 0 0 1 1 1 0 0
THIC   21   7 5.32672 0 0 0 1 1 1 0 0
THIC   21   8 1.81712 0 0 0 1 1 1 0 0
THIC   21   9 0.79966 0 0 0 1 1 1 0 0
THIC   21   10 1.81712 0 0 0 1 1 1 0 0
THIC   21   11 0.79966 0 0 0 1 1 1 0 0
THIC   28   1 37.98862 0 0 0 1 1 1 0 0
THIC   28   2 56.38741 0 0 0 1 1 1 0 0
THIC   28   3 66.73943 0 0 0 1 1 1 0 0
THIC   28   4 37.98862 0 0 0 1 1 1 0 0
THIC   28   5 56.38741 0 0 0 1 1 1 0 0
THIC   28   6 66.73943 0 0 0 1 1 1 0 0
THIC   28   7 37.98862 0 0 0 1 1 1 0 0
THIC   28   8 56.38741 0 0 0 1 1 1 0 0
THIC   28   9 66.73943 0 0 0 1 1 1 0 0
THIC   28   10 56.38741 0 0 0 1 1 1 0 0
THIC   28   11 66.73943 0 0 0 1 1 1 0 0
