VERS 161019 507 33785
MODE SEQ
NAME JP 1999-142740 Example 1 (Nikon AF Zoom-Nikkor 28-105mm f/3.5-4.5D IF)
NOTE 0 Prepared and converted by Bill Claff.
PFIL 0 0 0
LANG 0
UNIT MM X W X CM MR CPMM
FLOA
ENVD 20 1 0
GFAC 0 0
RAIM 0 2 1 1 0 1 0 0 0
SDMA 0 1 0
FTYP 3 0 3 3 0 0 0
ROPD 2
HYPR 0
PICB 1
XFLN 0 0 0 0 0 0 0 0 0 0 0 0
YFLN 0 15.12 21.6 0 0 0 0 0 0 0 0 0 0
FWGN 1 1 1 1 1 1 1 1 1 1 1 1
VDXN 0 0 0 0 0 0 0 0 0 0 0 0
VDYN 0 0 0 0 0 0 0 0 0 0 0 0
VCXN 0 0 0 0 0 0 0 0 0 0 0 0
VCYN 0 0 0 0 0 0 0 0 0 0 0 0
VANN 0 0 0 0 0 0 0 0 0 0 0 0
WAVM 1 0.4861327 1
WAVM 2 0.5875618 1
WAVM 3 0.6562725 1
WAVM 4 0.550 1
WAVM 5 0.550 1
WAVM 6 0.550 1
WAVM 7 0.550 1
WAVM 8 0.550 1
WAVM 9 0.550 1
WAVM 10 0.550 1
WAVM 11 0.550 1
WAVM 12 0.550 1
WAVM 13 0.550 1
WAVM 14 0.550 1
WAVM 15 0.550 1
WAVM 16 0.550 1
WAVM 17 0.550 1
WAVM 18 0.550 1
WAVM 19 0.550 1
WAVM 20 0.550 1
WAVM 21 0.550 1
WAVM 22 0.550 1
WAVM 23 0.550 1
WAVM 24 0.550 1
PWAV 2
POLS 1 0 1 0 0 1 0
GSTD 0 100 100 100 100 100 100 0 1 1 0 0 1 1 1 1 1 1
NSCD 100 500 0 1.0E-3 5 1.0E-6 0 0 0 0 0 0 1000000 0 2
SURF 0
  TYPE STANDARD
  CURV 0.0 0 0 0 0 ""
  HIDE 0 0 0 0 0 0 0 0 0 0
  MIRR 2 0
  DISZ INFINITY
  DIAM 0 1 0 0 1 ""
  POPS 0 0 0 0 0 0 0 0 1 1 1 1 0 0 0 0
SURF 1
  TYPE STANDARD
  CURV 0.0154805159903668 0 0 0 0
  HIDE 0 0 0 0 0 0 0 0 0 0
  MIRR 2 0
  DISZ  1.6
  GLAS  ___BLANK 1 0 1.860741 23.01 0 0 0 0 0 0
  DIAM  28.08 1 0 0 1 ""
  POPS 0 0 0 0 0 0 0 0 1 1 1 1 0 0 0 0
SURF 2
  TYPE STANDARD
  CURV 0.0227610625592357 0 0 0 0
  HIDE 0 0 0 0 0 0 0 0 0 0
  MIRR 2 0
  DISZ  7
  GLAS  ___BLANK 1 0 1.603001 65.42 0 0 0 0 0 0
  DIAM  26.61 1 0 0 1 ""
  POPS 0 0 0 0 0 0 0 0 1 1 1 1 0 0 0 0
SURF 3
  TYPE STANDARD
  CURV 0.00750456821828868 0 0 0 0
  HIDE 0 0 0 0 0 0 0 0 0 0
  MIRR 2 0
  DISZ  0.1
  DIAM  26.61 1 0 0 1 ""
  POPS 0 0 0 0 0 0 0 0 1 1 1 1 0 0 0 0
SURF 4
  TYPE STANDARD
  CURV 0.0222412904218772 0 0 0 0
  HIDE 0 0 0 0 0 0 0 0 0 0
  MIRR 2 0
  DISZ  6
  GLAS  ___BLANK 1 0 1.620409 60.14 0 0 0 0 0 0
  DIAM  24.375 1 0 0 1 ""
  POPS 0 0 0 0 0 0 0 0 1 1 1 1 0 0 0 0
SURF 5
  TYPE STANDARD
  CURV 0.00722749628687378 0 0 0 0
  HIDE 0 0 0 0 0 0 0 0 0 0
  MIRR 2 0
  DISZ  1.82043
  DIAM  23.04 1 0 0 1 ""
  POPS 0 0 0 0 0 0 0 0 1 1 1 1 0 0 0 0
SURF 6
  TYPE XOSPHERE
  CURV 0.00278377084978252 0 0 0 0
  HIDE 0 0 0 0 0 0 0 0 0 0
  MIRR 2 0
  XDAT 1 12 0 0 1 0 0 ""
  XDAT 2 1 0 0 1 0 0 ""
  XDAT 3 0 0 0 1 0 0 ""
  XDAT 4 0 0 0 1 0 0 ""
  XDAT 5 -2.4560E-05 0 0 1 0 0 ""
  XDAT 6 2.8177E-05 0 0 1 0 0 ""
  XDAT 7 6.5534E-07 0 0 1 0 0 ""
  XDAT 8 -1.1808E-07 0 0 1 0 0 ""
  XDAT 9 -8.9550E-10 0 0 1 0 0 ""
  XDAT 10 5.0981E-10 0 0 1 0 0 ""
  XDAT 11 0 0 0 1 0 0 ""
  XDAT 12 -1.0874E-12 0 0 1 0 0 ""
  XDAT 13 0 0 0 1 0 0 ""
  XDAT 14 3.1692E-15 0 0 1 0 0 ""
  DISZ  0.05
  CONI  400
  GLAS  ___BLANK 1 0 1.495210 56.34 0 0 0 0 0 0
  DIAM  13.7 1 0 0 1 ""
  POPS 0 0 0 0 0 0 0 0 1 1 1 1 0 0 0 0
SURF 7
  TYPE STANDARD
  CURV 0.0125 0 0 0 0
  HIDE 0 0 0 0 0 0 0 0 0 0
  MIRR 2 0
  DISZ  1.6
  GLAS  ___BLANK 1 0 1.840421 43.35 0 0 0 0 0 0
  DIAM  13.7 1 0 0 1 ""
  POPS 0 0 0 0 0 0 0 0 1 1 1 1 0 0 0 0
SURF 8
  TYPE STANDARD
  CURV 0.0716957404843621 0 0 0 0
  HIDE 0 0 0 0 0 0 0 0 0 0
  MIRR 2 0
  DISZ  5
  DIAM  9.765 1 0 0 1 ""
  POPS 0 0 0 0 0 0 0 0 1 1 1 1 0 0 0 0
SURF 9
  TYPE STANDARD
  CURV -0.0197762319356481 0 0 0 0
  HIDE 0 0 0 0 0 0 0 0 0 0
  MIRR 2 0
  DISZ  1
  GLAS  ___BLANK 1 0 1.796681 45.37 0 0 0 0 0 0
  DIAM  9.765 1 0 0 1 ""
  POPS 0 0 0 0 0 0 0 0 1 1 1 1 0 0 0 0
SURF 10
  TYPE STANDARD
  CURV 0.0244858701837518 0 0 0 0
  HIDE 0 0 0 0 0 0 0 0 0 0
  MIRR 2 0
  DISZ  0.5
  DIAM  10.91 1 0 0 1 ""
  POPS 0 0 0 0 0 0 0 0 1 1 1 1 0 0 0 0
SURF 11
  TYPE STANDARD
  CURV 0.0365210753995862 0 0 0 0
  HIDE 0 0 0 0 0 0 0 0 0 0
  MIRR 2 0
  DISZ  4
  GLAS  ___BLANK 1 0 1.688930 31.08 0 0 0 0 0 0
  DIAM  10.275 1 0 0 1 ""
  POPS 0 0 0 0 0 0 0 0 1 1 1 1 0 0 0 0
SURF 12
  TYPE STANDARD
  CURV -0.0253915568502993 0 0 0 0
  HIDE 0 0 0 0 0 0 0 0 0 0
  MIRR 2 0
  DISZ  1.6
  DIAM  8.935 1 0 0 1 ""
  POPS 0 0 0 0 0 0 0 0 1 1 1 1 0 0 0 0
SURF 13
  TYPE STANDARD
  CURV -0.0605510142294883 0 0 0 0
  HIDE 0 0 0 0 0 0 0 0 0 0
  MIRR 2 0
  DISZ  1.1
  GLAS  ___BLANK 1 0 1.772789 49.45 0 0 0 0 0 0
  DIAM  8.935 1 0 0 1 ""
  POPS 0 0 0 0 0 0 0 0 1 1 1 1 0 0 0 0
SURF 14
  TYPE STANDARD
  CURV 0.00297346665683837 0 0 0 0
  HIDE 0 0 0 0 0 0 0 0 0 0
  MIRR 2 0
  DISZ  2.35
  GLAS  ___BLANK 1 0 1.804581 25.50 0 0 0 0 0 0
  DIAM  10.275 1 0 0 1 ""
  POPS 0 0 0 0 0 0 0 0 1 1 1 1 0 0 0 0
SURF 15
  TYPE STANDARD
  CURV -0.0278790017867652 0 0 0 0
  HIDE 0 0 0 0 0 0 0 0 0 0
  MIRR 2 0
  DISZ  11.73242
  DIAM  10.275 1 0 0 1 ""
  POPS 0 0 0 0 0 0 0 0 1 1 1 1 0 0 0 0
SURF 16
  STOP
  TYPE STANDARD
  CURV 0 0 0 0 0
  HIDE 0 0 0 0 0 0 0 0 0 0
  MIRR 2 0
  DISZ  1.25
  DIAM  8.0895 1 0 0 1 ""
  POPS 0 0 0 0 0 0 0 0 1 1 1 1 0 0 0 0
SURF 17
  TYPE STANDARD
  CURV 0.0103662865142076 0 0 0 0
  HIDE 0 0 0 0 0 0 0 0 0 0
  MIRR 2 0
  DISZ  3.2
  GLAS  ___BLANK 1 0 1.612720 58.54 0 0 0 0 0 0
  DIAM  11.11 1 0 0 1 ""
  POPS 0 0 0 0 0 0 0 0 1 1 1 1 0 0 0 0
SURF 18
  TYPE STANDARD
  CURV -0.0197308203108275 0 0 0 0
  HIDE 0 0 0 0 0 0 0 0 0 0
  MIRR 2 0
  DISZ  0.1
  DIAM  11.11 1 0 0 1 ""
  POPS 0 0 0 0 0 0 0 0 1 1 1 1 0 0 0 0
SURF 19
  TYPE STANDARD
  CURV 0.0302041072753237 0 0 0 0
  HIDE 0 0 0 0 0 0 0 0 0 0
  MIRR 2 0
  DISZ  6
  GLAS  ___BLANK 1 0 1.620409 60.14 0 0 0 0 0 0
  DIAM  11.11 1 0 0 1 ""
  POPS 0 0 0 0 0 0 0 0 1 1 1 1 0 0 0 0
SURF 20
  TYPE STANDARD
  CURV -0.0421812604688616 0 0 0 0
  HIDE 0 0 0 0 0 0 0 0 0 0
  MIRR 2 0
  DISZ  1.5
  GLAS  ___BLANK 1 0 1.834000 37.35 0 0 0 0 0 0
  DIAM  11.11 1 0 0 1 ""
  POPS 0 0 0 0 0 0 0 0 1 1 1 1 0 0 0 0
SURF 21
  TYPE STANDARD
  CURV 0.00722258467559653 0 0 0 0
  HIDE 0 0 0 0 0 0 0 0 0 0
  MIRR 2 0
  DISZ  5.79309
  DIAM  11.11 1 0 0 1 ""
  POPS 0 0 0 0 0 0 0 0 1 1 1 1 0 0 0 0
SURF 22
  TYPE STANDARD
  CURV 0.0664544554389649 0 0 0 0
  HIDE 0 0 0 0 0 0 0 0 0 0
  MIRR 2 0
  DISZ  3.2
  GLAS  ___BLANK 1 0 1.603001 65.42 0 0 0 0 0 0
  DIAM  10.995 1 0 0 1 ""
  POPS 0 0 0 0 0 0 0 0 1 1 1 1 0 0 0 0
SURF 23
  TYPE STANDARD
  CURV 0.0585798372886439 0 0 0 0
  HIDE 0 0 0 0 0 0 0 0 0 0
  MIRR 2 0
  DISZ  1.3
  DIAM  9.92 1 0 0 1 ""
  POPS 0 0 0 0 0 0 0 0 1 1 1 1 0 0 0 0
SURF 24
  TYPE STANDARD
  CURV 0.0370048017430742 0 0 0 0
  HIDE 0 0 0 0 0 0 0 0 0 0
  MIRR 2 0
  DISZ  1.85
  GLAS  ___BLANK 1 0 1.796681 45.37 0 0 0 0 0 0
  DIAM  10.68 1 0 0 1 ""
  POPS 0 0 0 0 0 0 0 0 1 1 1 1 0 0 0 0
SURF 25
  TYPE STANDARD
  CURV 0.0841288416383924 0 0 0 0
  HIDE 0 0 0 0 0 0 0 0 0 0
  MIRR 2 0
  DISZ  8.5
  GLAS  ___BLANK 1 0 1.516800 64.10 0 0 0 0 0 0
  DIAM  9.745 1 0 0 1 ""
  POPS 0 0 0 0 0 0 0 0 1 1 1 1 0 0 0 0
SURF 26
  TYPE STANDARD
  CURV -0.0255128595017032 0 0 0 0
  HIDE 0 0 0 0 0 0 0 0 0 0
  MIRR 2 0
  DISZ  1
  DIAM  9.745 1 0 0 1 ""
  POPS 0 0 0 0 0 0 0 0 1 1 1 1 0 0 0 0
SURF 27
  TYPE STANDARD
  CURV -0.0107960581432507 0 0 0 0
  HIDE 0 0 0 0 0 0 0 0 0 0
  MIRR 2 0
  DISZ  6
  GLAS  ___BLANK 1 0 1.487490 70.41 0 0 0 0 0 0
  DIAM  9.64 1 0 0 1 ""
  POPS 0 0 0 0 0 0 0 0 1 1 1 1 0 0 0 0
SURF 28
  TYPE STANDARD
  CURV -0.0518260386456405 0 0 0 0
  HIDE 0 0 0 0 0 0 0 0 0 0
  MIRR 2 0
  DISZ  1.2
  DIAM  10.365 1 0 0 1 ""
  POPS 0 0 0 0 0 0 0 0 1 1 1 1 0 0 0 0
SURF 29
  TYPE STANDARD
  CURV -0.0671163912321831 0 0 0 0
  HIDE 0 0 0 0 0 0 0 0 0 0
  MIRR 2 0
  DISZ  1.5
  GLAS  ___BLANK 1 0 1.796681 45.37 0 0 0 0 0 0
  DIAM  10.365 1 0 0 1 ""
  POPS 0 0 0 0 0 0 0 0 1 1 1 1 0 0 0 0
SURF 30
  TYPE STANDARD
  CURV -0.0291887966393187 0 0 0 0
  HIDE 0 0 0 0 0 0 0 0 0 0
  MIRR 2 0
  DISZ  37.94289
  DIAM  11.13 1 0 0 1 ""
  POPS 0 0 0 0 0 0 0 0 1 1 1 1 0 0 0 0
SURF 31
  TYPE STANDARD
  CURV 0.0 0 0 0 0 ""
  HIDE 0 0 0 0 0 0 0 0 0 0
  MIRR 2 0
  DISZ 0
  DIAM 21.6 1 0 0 1 ""
  POPS 0 0 0 0 0 0 0 0 1 1 1 1 0 0 0 0
TOL TOFF   0   0              0              0   0 0 0 0
MNUM 10 1
SDIA   16   1 8.0895 0 0 0 1 1 1 0 0
SDIA   16   2 8.456 0 0 0 1 1 1 0 0
SDIA   16   3 9.076 0 0 0 1 1 1 0 0
SDIA   16   4 8.0895 0 0 0 1 1 1 0 0
SDIA   16   5 8.456 0 0 0 1 1 1 0 0
SDIA   16   6 9.076 0 0 0 1 1 1 0 0
SDIA   16   7 8.0895 0 0 0 1 1 1 0 0
SDIA   16   8 8.456 0 0 0 1 1 1 0 0
SDIA   16   9 9.076 0 0 0 1 1 1 0 0
SDIA   16   10 9.076 0 0 0 1 1 1 0 0
THIC   0   1 1.00E+10 0 0 0 1 1 1 0 0
THIC   0   2 1.00E+10 0 0 0 1 1 1 0 0
THIC   0   3 1.00E+10 0 0 0 1 1 1 0 0
THIC   0   4 818.4666 0 0 0 1 1 1 0 0
THIC   0   5 1411.8082 0 0 0 1 1 1 0 0
THIC   0   6 2817.2270 0 0 0 1 1 1 0 0
THIC   0   7 367.3112 0 0 0 1 1 1 0 0
THIC   0   8 351.6660 0 0 0 1 1 1 0 0
THIC   0   9 329.6774 0 0 0 1 1 1 0 0
THIC   0   10 44.8350 0 0 0 1 1 1 0 0
THIC   5   1 1.82043 0 0 0 1 1 1 0 0
THIC   5   2 12.60993 0 0 0 1 1 1 0 0
THIC   5   3 29.69067 0 0 0 1 1 1 0 0
THIC   5   4 1.31685 0 0 0 1 1 1 0 0
THIC   5   5 12.14048 0 0 0 1 1 1 0 0
THIC   5   6 28.95724 0 0 0 1 1 1 0 0
THIC   5   7 0.78191 0 0 0 1 1 1 0 0
THIC   5   8 11.03629 0 0 0 1 1 1 0 0
THIC   5   9 26.00578 0 0 0 1 1 1 0 0
THIC   5   10 21.58877 0 0 0 1 1 1 0 0
THIC   15   1 11.73242 0 0 0 1 1 1 0 0
THIC   15   2 5.99633 0 0 0 1 1 1 0 0
THIC   15   3 0.87257 0 0 0 1 1 1 0 0
THIC   15   4 12.23600 0 0 0 1 1 1 0 0
THIC   15   5 6.46578 0 0 0 1 1 1 0 0
THIC   15   6 1.60600 0 0 0 1 1 1 0 0
THIC   15   7 12.77094 0 0 0 1 1 1 0 0
THIC   15   8 7.56997 0 0 0 1 1 1 0 0
THIC   15   9 4.55746 0 0 0 1 1 1 0 0
THIC   15   10 8.97447 0 0 0 1 1 1 0 0
THIC   21   1 5.79309 0 0 0 1 1 1 0 0
THIC   21   2 2.61711 0 0 0 1 1 1 0 0
THIC   21   3 0.82545 0 0 0 1 1 1 0 0
THIC   21   4 5.79309 0 0 0 1 1 1 0 0
THIC   21   5 2.61711 0 0 0 1 1 1 0 0
THIC   21   6 0.82545 0 0 0 1 1 1 0 0
THIC   21   7 5.79309 0 0 0 1 1 1 0 0
THIC   21   8 2.61711 0 0 0 1 1 1 0 0
THIC   21   9 0.82545 0 0 0 1 1 1 0 0
THIC   21   10 0.82545 0 0 0 1 1 1 0 0
THIC   30   1 37.94289 0 0 0 1 1 1 0 0
THIC   30   2 51.71070 0 0 0 1 1 1 0 0
THIC   30   3 63.53376 0 0 0 1 1 1 0 0
THIC   30   4 37.94948 0 0 0 1 1 1 0 0
THIC   30   5 51.71726 0 0 0 1 1 1 0 0
THIC   30   6 63.54029 0 0 0 1 1 1 0 0
THIC   30   7 37.97169 0 0 0 1 1 1 0 0
THIC   30   8 51.78941 0 0 0 1 1 1 0 0
THIC   30   9 63.75280 0 0 0 1 1 1 0 0
THIC   30   10 65.09963 0 0 0 1 1 1 0 0
