VERS 161019 507 33785
MODE SEQ
NAME US 2001/0030812 Example 2 (Nikon AF Zoom-Nikkor 18-35mm f/3.5-4.5D IF-ED)
NOTE 0 Prepared and converted by Bill Claff.
PFIL 0 0 0
LANG 0
UNIT MM X W X CM MR CPMM
FLOA
ENVD 20 1 0
GFAC 0 0
RAIM 0 2 1 1 0 1 0 0 0
SDMA 0 1 0
FTYP 3 0 3 3 0 0 0
ROPD 2
HYPR 0
PICB 1
XFLN 0 0 0 0 0 0 0 0 0 0 0 0
YFLN 0 15.12 21.6 0 0 0 0 0 0 0 0 0 0
FWGN 1 1 1 1 1 1 1 1 1 1 1 1
VDXN 0 0 0 0 0 0 0 0 0 0 0 0
VDYN 0 0 0 0 0 0 0 0 0 0 0 0
VCXN 0 0 0 0 0 0 0 0 0 0 0 0
VCYN 0 0 0 0 0 0 0 0 0 0 0 0
VANN 0 0 0 0 0 0 0 0 0 0 0 0
WAVM 1 0.4861327 1
WAVM 2 0.5875618 1
WAVM 3 0.6562725 1
WAVM 4 0.550 1
WAVM 5 0.550 1
WAVM 6 0.550 1
WAVM 7 0.550 1
WAVM 8 0.550 1
WAVM 9 0.550 1
WAVM 10 0.550 1
WAVM 11 0.550 1
WAVM 12 0.550 1
WAVM 13 0.550 1
WAVM 14 0.550 1
WAVM 15 0.550 1
WAVM 16 0.550 1
WAVM 17 0.550 1
WAVM 18 0.550 1
WAVM 19 0.550 1
WAVM 20 0.550 1
WAVM 21 0.550 1
WAVM 22 0.550 1
WAVM 23 0.550 1
WAVM 24 0.550 1
PWAV 2
POLS 1 0 1 0 0 1 0
GSTD 0 100 100 100 100 100 100 0 1 1 0 0 1 1 1 1 1 1
NSCD 100 500 0 1.0E-3 5 1.0E-6 0 0 0 0 0 0 1000000 0 2
SURF 0
  TYPE STANDARD
  CURV 0.0 0 0 0 0 ""
  HIDE 0 0 0 0 0 0 0 0 0 0
  MIRR 2 0
  DISZ INFINITY
  DIAM 0 1 0 0 1 ""
  POPS 0 0 0 0 0 0 0 0 1 1 1 1 0 0 0 0
SURF 1
  TYPE STANDARD
  CURV 0.0197009009221992 0 0 0 0
  HIDE 0 0 0 0 0 0 0 0 0 0
  MIRR 2 0
  DISZ  2.5
  GLAS  ___BLANK 1 0 1.794997 45.30 0 0 0 0 0 0
  DIAM  24.37 1 0 0 1 ""
  POPS 0 0 0 0 0 0 0 0 1 1 1 1 0 0 0 0
SURF 2
  TYPE STANDARD
  CURV 0.0515224895666959 0 0 0 0
  HIDE 0 0 0 0 0 0 0 0 0 0
  MIRR 2 0
  DISZ  7
  DIAM  17.855 1 0 0 1 ""
  POPS 0 0 0 0 0 0 0 0 1 1 1 1 0 0 0 0
SURF 3
  TYPE EVENASPH
  CURV 0.0225903954674631 0 0 0 0
  HIDE 0 0 0 0 0 0 0 0 0 0
  MIRR 2 0
  PARM 1 0
  PARM 2 7.1876E-6
  PARM 3 3.6412E-9
  PARM 4 3.9918E-11
  PARM 5 3.3225E-14
  PARM 6 0
  PARM 7 0
  PARM 8 0
  DISZ  0.1
  CONI  4.435
  GLAS  ___BLANK 1 0 1.506250 55.63 0 0 0 0 0 0
  DIAM  17.19 1 0 0 1 ""
  POPS 0 0 0 0 0 0 0 0 1 1 1 1 0 0 0 0
SURF 4
  TYPE STANDARD
  CURV 0.0347084834475242 0 0 0 0
  HIDE 0 0 0 0 0 0 0 0 0 0
  MIRR 2 0
  DISZ  2
  GLAS  ___BLANK 1 0 1.794997 45.30 0 0 0 0 0 0
  DIAM  17.19 1 0 0 1 ""
  POPS 0 0 0 0 0 0 0 0 1 1 1 1 0 0 0 0
SURF 5
  TYPE STANDARD
  CURV 0.0450495094108425 0 0 0 0
  HIDE 0 0 0 0 0 0 0 0 0 0
  MIRR 2 0
  DISZ  8.2
  DIAM  17.19 1 0 0 1 ""
  POPS 0 0 0 0 0 0 0 0 1 1 1 1 0 0 0 0
SURF 6
  TYPE STANDARD
  CURV -0.00822567974961031 0 0 0 0
  HIDE 0 0 0 0 0 0 0 0 0 0
  MIRR 2 0
  DISZ  1.7
  GLAS  ___BLANK 1 0 1.744000 44.79 0 0 0 0 0 0
  DIAM  16.27 1 0 0 1 ""
  POPS 0 0 0 0 0 0 0 0 1 1 1 1 0 0 0 0
SURF 7
  TYPE STANDARD
  CURV 0.0200621927976728 0 0 0 0
  HIDE 0 0 0 0 0 0 0 0 0 0
  MIRR 2 0
  DISZ  6.8
  DIAM  16.27 1 0 0 1 ""
  POPS 0 0 0 0 0 0 0 0 1 1 1 1 0 0 0 0
SURF 8
  TYPE STANDARD
  CURV 0.0172276269116205 0 0 0 0
  HIDE 0 0 0 0 0 0 0 0 0 0
  MIRR 2 0
  DISZ  4.5
  GLAS  ___BLANK 1 0 1.795040 28.56 0 0 0 0 0 0
  DIAM  16.38 1 0 0 1 ""
  POPS 0 0 0 0 0 0 0 0 1 1 1 1 0 0 0 0
SURF 9
  TYPE STANDARD
  CURV -0.006703666436284 0 0 0 0
  HIDE 0 0 0 0 0 0 0 0 0 0
  MIRR 2 0
  DISZ  28.42071
  DIAM  16.38 1 0 0 1 ""
  POPS 0 0 0 0 0 0 0 0 1 1 1 1 0 0 0 0
SURF 10
  TYPE STANDARD
  CURV 0.0195966999157342 0 0 0 0
  HIDE 0 0 0 0 0 0 0 0 0 0
  MIRR 2 0
  DISZ  1
  GLAS  ___BLANK 1 0 1.788000 47.38 0 0 0 0 0 0
  DIAM  8.9 1 0 0 1 ""
  POPS 0 0 0 0 0 0 0 0 1 1 1 1 0 0 0 0
SURF 11
  TYPE STANDARD
  CURV 0.0434302987135946 0 0 0 0
  HIDE 0 0 0 0 0 0 0 0 0 0
  MIRR 2 0
  DISZ  3.8
  GLAS  ___BLANK 1 0 1.501370 56.41 0 0 0 0 0 0
  DIAM  8.9 1 0 0 1 ""
  POPS 0 0 0 0 0 0 0 0 1 1 1 1 0 0 0 0
SURF 12
  TYPE STANDARD
  CURV -0.0181901194908949 0 0 0 0
  HIDE 0 0 0 0 0 0 0 0 0 0
  MIRR 2 0
  DISZ  5.16566
  DIAM  8.9 1 0 0 1 ""
  POPS 0 0 0 0 0 0 0 0 1 1 1 1 0 0 0 0
SURF 13
  STOP
  TYPE STANDARD
  CURV 0 0 0 0 0
  HIDE 0 0 0 0 0 0 0 0 0 0
  MIRR 2 0
  DISZ  1.5
  DIAM  8.102 1 0 0 1 ""
  POPS 0 0 0 0 0 0 0 0 1 1 1 1 0 0 0 0
SURF 14
  TYPE STANDARD
  CURV 0.0566453491336094 0 0 0 0
  HIDE 0 0 0 0 0 0 0 0 0 0
  MIRR 2 0
  DISZ  14.2
  GLAS  ___BLANK 1 0 1.539960 59.47 0 0 0 0 0 0
  DIAM  9.04 1 0 0 1 ""
  POPS 0 0 0 0 0 0 0 0 1 1 1 1 0 0 0 0
SURF 15
  TYPE STANDARD
  CURV -0.0366504427373483 0 0 0 0
  HIDE 0 0 0 0 0 0 0 0 0 0
  MIRR 2 0
  DISZ  1.3
  GLAS  ___BLANK 1 0 1.794997 45.30 0 0 0 0 0 0
  DIAM  7.13 1 0 0 1 ""
  POPS 0 0 0 0 0 0 0 0 1 1 1 1 0 0 0 0
SURF 16
  TYPE STANDARD
  CURV 0.0309718342139658 0 0 0 0
  HIDE 0 0 0 0 0 0 0 0 0 0
  MIRR 2 0
  DISZ  0.7
  DIAM  7.13 1 0 0 1 ""
  POPS 0 0 0 0 0 0 0 0 1 1 1 1 0 0 0 0
SURF 17
  TYPE STANDARD
  CURV 0.009053944305567 0 0 0 0
  HIDE 0 0 0 0 0 0 0 0 0 0
  MIRR 2 0
  DISZ  1.3
  GLAS  ___BLANK 1 0 1.834000 37.35 0 0 0 0 0 0
  DIAM  7.13 1 0 0 1 ""
  POPS 0 0 0 0 0 0 0 0 1 1 1 1 0 0 0 0
SURF 18
  TYPE STANDARD
  CURV 0.0712560300415423 0 0 0 0
  HIDE 0 0 0 0 0 0 0 0 0 0
  MIRR 2 0
  DISZ  5.3
  GLAS  ___BLANK 1 0 1.497820 82.52 0 0 0 0 0 0
  DIAM  7.13 1 0 0 1 ""
  POPS 0 0 0 0 0 0 0 0 1 1 1 1 0 0 0 0
SURF 19
  TYPE STANDARD
  CURV -0.0428098685308937 0 0 0 0
  HIDE 0 0 0 0 0 0 0 0 0 0
  MIRR 2 0
  DISZ  0.1
  DIAM  7.13 1 0 0 1 ""
  POPS 0 0 0 0 0 0 0 0 1 1 1 1 0 0 0 0
SURF 20
  TYPE STANDARD
  CURV 0.00723153121165029 0 0 0 0
  HIDE 0 0 0 0 0 0 0 0 0 0
  MIRR 2 0
  DISZ  1.6
  GLAS  ___BLANK 1 0 1.539960 59.47 0 0 0 0 0 0
  DIAM  8.7 1 0 0 1 ""
  POPS 0 0 0 0 0 0 0 0 1 1 1 1 0 0 0 0
SURF 21
  TYPE STANDARD
  CURV -0.00723153121165029 0 0 0 0
  HIDE 0 0 0 0 0 0 0 0 0 0
  MIRR 2 0
  DISZ  38.29481
  DIAM  8.7 1 0 0 1 ""
  POPS 0 0 0 0 0 0 0 0 1 1 1 1 0 0 0 0
SURF 22
  TYPE STANDARD
  CURV 0.0 0 0 0 0 ""
  HIDE 0 0 0 0 0 0 0 0 0 0
  MIRR 2 0
  DISZ 0
  DIAM 21.6 1 0 0 1 ""
  POPS 0 0 0 0 0 0 0 0 1 1 1 1 0 0 0 0
TOL TOFF   0   0              0              0   0 0 0 0
MNUM 6 1
SDIA   13   1 8.102 0 0 0 1 1 1 0 0
SDIA   13   2 8.112 0 0 0 1 1 1 0 0
SDIA   13   3 8.553 0 0 0 1 1 1 0 0
SDIA   13   4 8.102 0 0 0 1 1 1 0 0
SDIA   13   5 8.112 0 0 0 1 1 1 0 0
SDIA   13   6 8.553 0 0 0 1 1 1 0 0
THIC   0   1 1.00E+10 0 0 0 1 1 1 0 0
THIC   0   2 1.00E+10 0 0 0 1 1 1 0 0
THIC   0   3 1.00E+10 0 0 0 1 1 1 0 0
THIC   0   4 187.8488 0 0 0 1 1 1 0 0
THIC   0   5 195.2848 0 0 0 1 1 1 0 0
THIC   0   6 195.7094 0 0 0 1 1 1 0 0
THIC   9   1 28.42071 0 0 0 1 1 1 0 0
THIC   9   2 12.78191 0 0 0 1 1 1 0 0
THIC   9   3 0.99974 0 0 0 1 1 1 0 0
THIC   9   4 32.42986 0 0 0 1 1 1 0 0
THIC   9   5 16.60590 0 0 0 1 1 1 0 0
THIC   9   6 4.95936 0 0 0 1 1 1 0 0
THIC   12   1 5.16566 0 0 0 1 1 1 0 0
THIC   12   2 5.16566 0 0 0 1 1 1 0 0
THIC   12   3 5.16566 0 0 0 1 1 1 0 0
THIC   12   4 1.15651 0 0 0 1 1 1 0 0
THIC   12   5 1.34167 0 0 0 1 1 1 0 0
THIC   12   6 1.20604 0 0 0 1 1 1 0 0
THIC   21   1 38.29481 0 0 0 1 1 1 0 0
THIC   21   2 46.49762 0 0 0 1 1 1 0 0
THIC   21   3 57.85554 0 0 0 1 1 1 0 0
THIC   21   4 38.29481 0 0 0 1 1 1 0 0
THIC   21   5 46.49762 0 0 0 1 1 1 0 0
THIC   21   6 57.85554 0 0 0 1 1 1 0 0
