VERS 161019 507 33785
MODE SEQ
NAME US 2017/0242227 Example 2 (Panasonic Lumix G Vario 12-60mm F3.5-5.6 Asph Power OIS)
NOTE 0 Prepared and converted by Bill Claff.
PFIL 0 0 0
LANG 0
UNIT MM X W X CM MR CPMM
FNUM 3.62207 0
ENVD 20 1 0
GFAC 0 0
RAIM 0 2 1 1 0 1 0 0 0
SDMA 0 1 0
FTYP 3 0 3 3 0 0 0
ROPD 2
HYPR 0
PICB 1
XFLN 0 0 0 0 0 0 0 0 0 0 0 0
YFLN 0 7 10 0 0 0 0 0 0 0 0 0 0
FWGN 1 1 1 1 1 1 1 1 1 1 1 1
VDXN 0 0 0 0 0 0 0 0 0 0 0 0
VDYN 0 0 0 0 0 0 0 0 0 0 0 0
VCXN 0 0 0 0 0 0 0 0 0 0 0 0
VCYN 0 0 0 0 0 0 0 0 0 0 0 0
VANN 0 0 0 0 0 0 0 0 0 0 0 0
WAVM 1 0.4861327 1
WAVM 2 0.5875618 1
WAVM 3 0.6562725 1
WAVM 4 0.550 1
WAVM 5 0.550 1
WAVM 6 0.550 1
WAVM 7 0.550 1
WAVM 8 0.550 1
WAVM 9 0.550 1
WAVM 10 0.550 1
WAVM 11 0.550 1
WAVM 12 0.550 1
WAVM 13 0.550 1
WAVM 14 0.550 1
WAVM 15 0.550 1
WAVM 16 0.550 1
WAVM 17 0.550 1
WAVM 18 0.550 1
WAVM 19 0.550 1
WAVM 20 0.550 1
WAVM 21 0.550 1
WAVM 22 0.550 1
WAVM 23 0.550 1
WAVM 24 0.550 1
PWAV 2
POLS 1 0 1 0 0 1 0
GSTD 0 100 100 100 100 100 100 0 1 1 0 0 1 1 1 1 1 1
NSCD 100 500 0 1.0E-3 5 1.0E-6 0 0 0 0 0 0 1000000 0 2
SURF 0
  TYPE STANDARD
  CURV 0.0 0 0 0 0 ""
  HIDE 0 0 0 0 0 0 0 0 0 0
  MIRR 2 0
  DISZ INFINITY
  DIAM 0 1 0 0 1 ""
  POPS 0 0 0 0 0 0 0 0 1 1 1 1 0 0 0 0
SURF 1
  TYPE STANDARD
  CURV 0.0270680680707776 0 0 0 0
  HIDE 0 0 0 0 0 0 0 0 0 0
  MIRR 2 0
  DISZ  1.2
  GLAS  ___BLANK 1 0 1.80610 33.3 0 0 0 0 0 0
  DIAM  19.27 1 0 0 1 ""
  POPS 0 0 0 0 0 0 0 0 1 1 1 1 0 0 0 0
SURF 2
  TYPE STANDARD
  CURV 0.0371498625455086 0 0 0 0
  HIDE 0 0 0 0 0 0 0 0 0 0
  MIRR 2 0
  DISZ  8
  GLAS  ___BLANK 1 0 1.51680 64.2 0 0 0 0 0 0
  DIAM  18.41 1 0 0 1 ""
  POPS 0 0 0 0 0 0 0 0 1 1 1 1 0 0 0 0
SURF 3
  TYPE STANDARD
  CURV 0.00373028961595549 0 0 0 0
  HIDE 0 0 0 0 0 0 0 0 0 0
  MIRR 2 0
  DISZ  0.7565
  DIAM  18.41 1 0 0 1 ""
  POPS 0 0 0 0 0 0 0 0 1 1 1 1 0 0 0 0
SURF 4
  TYPE STANDARD
  CURV 0.01341183728759 0 0 0 0
  HIDE 0 0 0 0 0 0 0 0 0 0
  MIRR 2 0
  DISZ  1.1
  GLAS  ___BLANK 1 0 1.90366 31.3 0 0 0 0 0 0
  DIAM  12.14 1 0 0 1 ""
  POPS 0 0 0 0 0 0 0 0 1 1 1 1 0 0 0 0
SURF 5
  TYPE STANDARD
  CURV 0.0840336134453781 0 0 0 0
  HIDE 0 0 0 0 0 0 0 0 0 0
  MIRR 2 0
  DISZ  5.7413
  DIAM  9.22 1 0 0 1 ""
  POPS 0 0 0 0 0 0 0 0 1 1 1 1 0 0 0 0
SURF 6
  TYPE STANDARD
  CURV -0.0179878761714604 0 0 0 0
  HIDE 0 0 0 0 0 0 0 0 0 0
  MIRR 2 0
  DISZ  0.8
  GLAS  ___BLANK 1 0 1.62041 60.3 0 0 0 0 0 0
  DIAM  9.22 1 0 0 1 ""
  POPS 0 0 0 0 0 0 0 0 1 1 1 1 0 0 0 0
SURF 7
  TYPE STANDARD
  CURV 0.036064627813041 0 0 0 0
  HIDE 0 0 0 0 0 0 0 0 0 0
  MIRR 2 0
  DISZ  1.7927
  DIAM  9.22 1 0 0 1 ""
  POPS 0 0 0 0 0 0 0 0 1 1 1 1 0 0 0 0
SURF 8
  TYPE STANDARD
  CURV 0.043813529617946 0 0 0 0
  HIDE 0 0 0 0 0 0 0 0 0 0
  MIRR 2 0
  DISZ  2.1
  GLAS  ___BLANK 1 0 1.94595 18.0 0 0 0 0 0 0
  DIAM  9.22 1 0 0 1 ""
  POPS 0 0 0 0 0 0 0 0 1 1 1 1 0 0 0 0
SURF 9
  TYPE STANDARD
  CURV 0.0149626681429833 0 0 0 0
  HIDE 0 0 0 0 0 0 0 0 0 0
  MIRR 2 0
  DISZ  26.1
  DIAM  9.22 1 0 0 1 ""
  POPS 0 0 0 0 0 0 0 0 1 1 1 1 0 0 0 0
SURF 10
  STOP
  TYPE STANDARD
  CURV 0 0 0 0 0
  HIDE 0 0 0 0 0 0 0 0 0 0
  MIRR 2 0
  DISZ  1
  DIAM  4.766 1 0 0 1 ""
  POPS 0 0 0 0 0 0 0 0 1 1 1 1 0 0 0 0
SURF 11
  TYPE EVENASPH
  CURV 0.0402268796009494 0 0 0 0
  HIDE 0 0 0 0 0 0 0 0 0 0
  MIRR 2 0
  PARM 1 0
  PARM 2 -3.55220E-05
  PARM 3 -1.08362E-06
  PARM 4 5.77171E-08
  PARM 5 -1.67254E-09
  PARM 6 1.90130E-11
  PARM 7 0
  PARM 8 0
  DISZ  2.5
  CONI  0
  GLAS  ___BLANK 1 0 1.58699 59.5 0 0 0 0 0 0
  DIAM  5.61 1 0 0 1 ""
  POPS 0 0 0 0 0 0 0 0 1 1 1 1 0 0 0 0
SURF 12
  TYPE STANDARD
  CURV -0.0269287733943719 0 0 0 0
  HIDE 0 0 0 0 0 0 0 0 0 0
  MIRR 2 0
  DISZ  5.8893
  DIAM  5.61 1 0 0 1 ""
  POPS 0 0 0 0 0 0 0 0 1 1 1 1 0 0 0 0
SURF 13
  TYPE EVENASPH
  CURV 0.0376775554802004 0 0 0 0
  HIDE 0 0 0 0 0 0 0 0 0 0
  MIRR 2 0
  PARM 1 0
  PARM 2 -5.32137E-06
  PARM 3 -5.66960E-07
  PARM 4 5.95887E-08
  PARM 5 2.28840E-10
  PARM 6 -3.91081E-11
  PARM 7 0
  PARM 8 0
  DISZ  1.66
  CONI  0
  GLAS  ___BLANK 1 0 1.53380 55.6 0 0 0 0 0 0
  DIAM  5.87 1 0 0 1 ""
  POPS 0 0 0 0 0 0 0 0 1 1 1 1 0 0 0 0
SURF 14
  TYPE EVENASPH
  CURV -0.0104983680286899 0 0 0 0
  HIDE 0 0 0 0 0 0 0 0 0 0
  MIRR 2 0
  PARM 1 0
  PARM 2 3.67775E-05
  PARM 3 -3.06523E-06
  PARM 4 2.38448E-07
  PARM 5 -5.97129E-09
  PARM 6 3.84009E-11
  PARM 7 0
  PARM 8 0
  DISZ  1
  CONI  0
  DIAM  5.87 1 0 0 1 ""
  POPS 0 0 0 0 0 0 0 0 1 1 1 1 0 0 0 0
SURF 15
  TYPE STANDARD
  CURV 0.00848524754861198 0 0 0 0
  HIDE 0 0 0 0 0 0 0 0 0 0
  MIRR 2 0
  DISZ  0.6
  GLAS  ___BLANK 1 0 1.73800 32.3 0 0 0 0 0 0
  DIAM  5.36 1 0 0 1 ""
  POPS 0 0 0 0 0 0 0 0 1 1 1 1 0 0 0 0
SURF 16
  TYPE STANDARD
  CURV 0.102134613420488 0 0 0 0
  HIDE 0 0 0 0 0 0 0 0 0 0
  MIRR 2 0
  DISZ  3.25
  GLAS  ___BLANK 1 0 1.49700 81.6 0 0 0 0 0 0
  DIAM  5.36 1 0 0 1 ""
  POPS 0 0 0 0 0 0 0 0 1 1 1 1 0 0 0 0
SURF 17
  TYPE STANDARD
  CURV -0.0553688395244924 0 0 0 0
  HIDE 0 0 0 0 0 0 0 0 0 0
  MIRR 2 0
  DISZ  1.8729
  DIAM  5.36 1 0 0 1 ""
  POPS 0 0 0 0 0 0 0 0 1 1 1 1 0 0 0 0
SURF 18
  TYPE EVENASPH
  CURV -0.00464123271140815 0 0 0 0
  HIDE 0 0 0 0 0 0 0 0 0 0
  MIRR 2 0
  PARM 1 0
  PARM 2 -2.15771E-04
  PARM 3 5.28419E-06
  PARM 4 -5.21315E-08
  PARM 5 5.99872E-10
  PARM 6 -2.83037E-11
  PARM 7 0
  PARM 8 0
  DISZ  1.2143
  CONI  0
  GLAS  ___BLANK 1 0 1.53380 55.6 0 0 0 0 0 0
  DIAM  5.19 1 0 0 1 ""
  POPS 0 0 0 0 0 0 0 0 1 1 1 1 0 0 0 0
SURF 19
  TYPE EVENASPH
  CURV 0.0860363073216898 0 0 0 0
  HIDE 0 0 0 0 0 0 0 0 0 0
  MIRR 2 0
  PARM 1 0
  PARM 2 -2.46865E-04
  PARM 3 3.87923E-06
  PARM 4 2.22954E-08
  PARM 5 -3.01584E-09
  PARM 6 3.30166E-11
  PARM 7 0
  PARM 8 0
  DISZ  5.7284
  CONI  0
  DIAM  5.19 1 0 0 1 ""
  POPS 0 0 0 0 0 0 0 0 1 1 1 1 0 0 0 0
SURF 20
  TYPE STANDARD
  CURV -0.001 0 0 0 0
  HIDE 0 0 0 0 0 0 0 0 0 0
  MIRR 2 0
  DISZ  4.0445
  GLAS  ___BLANK 1 0 1.51742 52.1 0 0 0 0 0 0
  DIAM  10.94 1 0 0 1 ""
  POPS 0 0 0 0 0 0 0 0 1 1 1 1 0 0 0 0
SURF 21
  TYPE STANDARD
  CURV -0.0399873639929782 0 0 0 0
  HIDE 0 0 0 0 0 0 0 0 0 0
  MIRR 2 0
  DISZ  14.236
  DIAM  10.94 1 0 0 1 ""
  POPS 0 0 0 0 0 0 0 0 1 1 1 1 0 0 0 0
SURF 22
  TYPE STANDARD
  CURV 0.0 0 0 0 0 ""
  HIDE 0 0 0 0 0 0 0 0 0 0
  MIRR 2 0
  DISZ 0
  DIAM 10 1 0 0 1 ""
  POPS 0 0 0 0 0 0 0 0 1 1 1 1 0 0 0 0
TOL TOFF   0   0              0              0   0 0 0 0
MNUM 6 1
THIC   0   1 1.00E+10 0 0 0 1 1 1 0 0
THIC   0   2 1.00E+10 0 0 0 1 1 1 0 0
THIC   0   3 1.00E+10 0 0 0 1 1 1 0 0
THIC   0   4 159.4138 0 0 0 1 1 1 0 0
THIC   0   5 160.1141 0 0 0 1 1 1 0 0
THIC   0   6 126.5596 0 0 0 1 1 1 0 0
THIC   3   1 0.7565 0 0 0 1 1 1 0 0
THIC   3   2 7.6661 0 0 0 1 1 1 0 0
THIC   3   3 35.5513 0 0 0 1 1 1 0 0
THIC   3   4 0.7565 0 0 0 1 1 1 0 0
THIC   3   5 7.6661 0 0 0 1 1 1 0 0
THIC   3   6 35.5513 0 0 0 1 1 1 0 0
THIC   9   1 26.1000 0 0 0 1 1 1 0 0
THIC   9   2 7.6930 0 0 0 1 1 1 0 0
THIC   9   3 2.7090 0 0 0 1 1 1 0 0
THIC   9   4 26.1000 0 0 0 1 1 1 0 0
THIC   9   5 7.6930 0 0 0 1 1 1 0 0
THIC   9   6 2.7090 0 0 0 1 1 1 0 0
THIC   17   1 1.8729 0 0 0 1 1 1 0 0
THIC   17   2 5.2170 0 0 0 1 1 1 0 0
THIC   17   3 5.6168 0 0 0 1 1 1 0 0
THIC   17   4 2.2388 0 0 0 1 1 1 0 0
THIC   17   5 6.4036 0 0 0 1 1 1 0 0
THIC   17   6 8.9986 0 0 0 1 1 1 0 0
THIC   19   1 5.7284 0 0 0 1 1 1 0 0
THIC   19   2 13.1812 0 0 0 1 1 1 0 0
THIC   19   3 23.4348 0 0 0 1 1 1 0 0
THIC   19   4 5.3625 0 0 0 1 1 1 0 0
THIC   19   5 11.9947 0 0 0 1 1 1 0 0
THIC   19   6 20.0529 0 0 0 1 1 1 0 0
THIC   21   1 14.236 0 0 0 1 1 1 0 0
THIC   21   2 14.236 0 0 0 1 1 1 0 0
THIC   21   3 14.236 0 0 0 1 1 1 0 0
THIC   21   4 14.236 0 0 0 1 1 1 0 0
THIC   21   5 14.236 0 0 0 1 1 1 0 0
THIC   21   6 14.236 0 0 0 1 1 1 0 0
THIC   22   1 20.00 0 0 0 1 1 1 0 0
THIC   22   2 21.63 0 0 0 1 1 1 0 0
THIC   22   3 21.63 0 0 0 1 1 1 0 0
THIC   22   4 20.00 0 0 0 1 1 1 0 0
THIC   22   5 21.63 0 0 0 1 1 1 0 0
THIC   22   6 21.63 0 0 0 1 1 1 0 0
