VERS 161019 507 33785
MODE SEQ
NAME JP 2019-008031 Example 1 (Nikon Nikkor Z 14-30mm f/4 S)
NOTE 0 Prepared and converted by Bill Claff.
PFIL 0 0 0
LANG 0
UNIT MM X W X CM MR CPMM
FLOA
ENVD 20 1 0
GFAC 0 0
RAIM 0 2 1 1 0 1 0 0 0
SDMA 0 1 0
FTYP 3 0 3 3 0 0 0
ROPD 2
HYPR 0
PICB 1
XFLN 0 0 0 0 0 0 0 0 0 0 0 0
YFLN 0 15.19 21.7 0 0 0 0 0 0 0 0 0 0
FWGN 1 1 1 1 1 1 1 1 1 1 1 1
VDXN 0 0 0 0 0 0 0 0 0 0 0 0
VDYN 0 0 0 0 0 0 0 0 0 0 0 0
VCXN 0 0 0 0 0 0 0 0 0 0 0 0
VCYN 0 0 0 0 0 0 0 0 0 0 0 0
VANN 0 0 0 0 0 0 0 0 0 0 0 0
WAVM 1 0.4861327 1
WAVM 2 0.5875618 1
WAVM 3 0.6562725 1
WAVM 4 0.550 1
WAVM 5 0.550 1
WAVM 6 0.550 1
WAVM 7 0.550 1
WAVM 8 0.550 1
WAVM 9 0.550 1
WAVM 10 0.550 1
WAVM 11 0.550 1
WAVM 12 0.550 1
WAVM 13 0.550 1
WAVM 14 0.550 1
WAVM 15 0.550 1
WAVM 16 0.550 1
WAVM 17 0.550 1
WAVM 18 0.550 1
WAVM 19 0.550 1
WAVM 20 0.550 1
WAVM 21 0.550 1
WAVM 22 0.550 1
WAVM 23 0.550 1
WAVM 24 0.550 1
PWAV 2
POLS 1 0 1 0 0 1 0
GSTD 0 100 100 100 100 100 100 0 1 1 0 0 1 1 1 1 1 1
NSCD 100 500 0 1.0E-3 5 1.0E-6 0 0 0 0 0 0 1000000 0 2
SURF 0
  TYPE STANDARD
  CURV 0.0 0 0 0 0 ""
  HIDE 0 0 0 0 0 0 0 0 0 0
  MIRR 2 0
  DISZ INFINITY
  DIAM 0 1 0 0 1 ""
  POPS 0 0 0 0 0 0 0 0 1 1 1 1 0 0 0 0
SURF 1
  TYPE STANDARD
  CURV 0.00524236776782602 0 0 0 0
  HIDE 0 0 0 0 0 0 0 0 0 0
  MIRR 2 0
  DISZ  3
  GLAS  ___BLANK 1 0 1.69370 53.32 0 0 0 0 0 0
  DIAM  29.285 1 0 0 1 ""
  POPS 0 0 0 0 0 0 0 0 1 1 1 1 0 0 0 0
SURF 2
  TYPE EVENASPH
  CURV 0.0531637763293602 0 0 0 0
  HIDE 0 0 0 0 0 0 0 0 0 0
  MIRR 2 0
  PARM 1 0
  PARM 2 -1.33157E-05
  PARM 3 -3.07345E-08
  PARM 4 6.91260E-11
  PARM 5 -3.76684E-14
  PARM 6 0
  PARM 7 0
  PARM 8 0
  DISZ  9.5
  CONI  -1
  DIAM  22.485 1 0 0 1 ""
  POPS 0 0 0 0 0 0 0 0 1 1 1 1 0 0 0 0
SURF 3
  TYPE STANDARD
  CURV 0.0193937513333204 0 0 0 0
  HIDE 0 0 0 0 0 0 0 0 0 0
  MIRR 2 0
  DISZ  2.9
  GLAS  ___BLANK 1 0 1.69370 53.32 0 0 0 0 0 0
  DIAM  19.205 1 0 0 1 ""
  POPS 0 0 0 0 0 0 0 0 1 1 1 1 0 0 0 0
SURF 4
  TYPE EVENASPH
  CURV 0.044048982468505 0 0 0 0
  HIDE 0 0 0 0 0 0 0 0 0 0
  MIRR 2 0
  PARM 1 0
  PARM 2 3.67009E-05
  PARM 3 1.37031E-07
  PARM 4 -5.20756E-10
  PARM 5 3.14884E-12
  PARM 6 -5.61530E-15
  PARM 7 0
  PARM 8 0
  DISZ  9.7
  CONI  -1
  DIAM  14.475 1 0 0 1 ""
  POPS 0 0 0 0 0 0 0 0 1 1 1 1 0 0 0 0
SURF 5
  TYPE STANDARD
  CURV -0.0140716047680226 0 0 0 0
  HIDE 0 0 0 0 0 0 0 0 0 0
  MIRR 2 0
  DISZ  1.9
  GLAS  ___BLANK 1 0 1.49782 82.57 0 0 0 0 0 0
  DIAM  15.05 1 0 0 1 ""
  POPS 0 0 0 0 0 0 0 0 1 1 1 1 0 0 0 0
SURF 6
  TYPE STANDARD
  CURV 0.0224802454842807 0 0 0 0
  HIDE 0 0 0 0 0 0 0 0 0 0
  MIRR 2 0
  DISZ  0.1
  DIAM  15.05 1 0 0 1 ""
  POPS 0 0 0 0 0 0 0 0 1 1 1 1 0 0 0 0
SURF 7
  TYPE STANDARD
  CURV 0.0306673209028459 0 0 0 0
  HIDE 0 0 0 0 0 0 0 0 0 0
  MIRR 2 0
  DISZ  4.5
  GLAS  ___BLANK 1 0 1.90265 35.73 0 0 0 0 0 0
  DIAM  15.05 1 0 0 1 ""
  POPS 0 0 0 0 0 0 0 0 1 1 1 1 0 0 0 0
SURF 8
  TYPE STANDARD
  CURV 0.0033716999065702 0 0 0 0
  HIDE 0 0 0 0 0 0 0 0 0 0
  MIRR 2 0
  DISZ  28.616
  DIAM  15.05 1 0 0 1 ""
  POPS 0 0 0 0 0 0 0 0 1 1 1 1 0 0 0 0
SURF 9
  TYPE STANDARD
  CURV 0.0158578125099111 0 0 0 0
  HIDE 0 0 0 0 0 0 0 0 0 0
  MIRR 2 0
  DISZ  2
  GLAS  ___BLANK 1 0 1.59349 67.00 0 0 0 0 0 0
  DIAM  9.04 1 0 0 1 ""
  POPS 0 0 0 0 0 0 0 0 1 1 1 1 0 0 0 0
SURF 10
  TYPE STANDARD
  CURV 0.00200049812403288 0 0 0 0
  HIDE 0 0 0 0 0 0 0 0 0 0
  MIRR 2 0
  DISZ  0.1
  DIAM  9.04 1 0 0 1 ""
  POPS 0 0 0 0 0 0 0 0 1 1 1 1 0 0 0 0
SURF 11
  TYPE STANDARD
  CURV 0.0416567731830357 0 0 0 0
  HIDE 0 0 0 0 0 0 0 0 0 0
  MIRR 2 0
  DISZ  1.2
  GLAS  ___BLANK 1 0 1.88300 40.66 0 0 0 0 0 0
  DIAM  9.605 1 0 0 1 ""
  POPS 0 0 0 0 0 0 0 0 1 1 1 1 0 0 0 0
SURF 12
  TYPE STANDARD
  CURV 0.0749232037161909 0 0 0 0
  HIDE 0 0 0 0 0 0 0 0 0 0
  MIRR 2 0
  DISZ  4.5
  GLAS  ___BLANK 1 0 1.56883 56.00 0 0 0 0 0 0
  DIAM  8.54 1 0 0 1 ""
  POPS 0 0 0 0 0 0 0 0 1 1 1 1 0 0 0 0
SURF 13
  TYPE STANDARD
  CURV 0.00299417513169879 0 0 0 0
  HIDE 0 0 0 0 0 0 0 0 0 0
  MIRR 2 0
  DISZ  2.5
  DIAM  8.54 1 0 0 1 ""
  POPS 0 0 0 0 0 0 0 0 1 1 1 1 0 0 0 0
SURF 14
  STOP
  TYPE STANDARD
  CURV 0 0 0 0 0
  HIDE 0 0 0 0 0 0 0 0 0 0
  MIRR 2 0
  DISZ  7.483
  DIAM  5.6335 1 0 0 1 ""
  POPS 0 0 0 0 0 0 0 0 1 1 1 1 0 0 0 0
SURF 15
  TYPE STANDARD
  CURV 0.0274888395311504 0 0 0 0
  HIDE 0 0 0 0 0 0 0 0 0 0
  MIRR 2 0
  DISZ  1.1
  GLAS  ___BLANK 1 0 1.81600 46.59 0 0 0 0 0 0
  DIAM  8.59 1 0 0 1 ""
  POPS 0 0 0 0 0 0 0 0 1 1 1 1 0 0 0 0
SURF 16
  TYPE STANDARD
  CURV 0.0713791158982705 0 0 0 0
  HIDE 0 0 0 0 0 0 0 0 0 0
  MIRR 2 0
  DISZ  4.71
  GLAS  ___BLANK 1 0 1.51612 64.08 0 0 0 0 0 0
  DIAM  8.42 1 0 0 1 ""
  POPS 0 0 0 0 0 0 0 0 1 1 1 1 0 0 0 0
SURF 17
  TYPE EVENASPH
  CURV 0.0163814116845333 0 0 0 0
  HIDE 0 0 0 0 0 0 0 0 0 0
  MIRR 2 0
  PARM 1 0
  PARM 2 1.75905E-05
  PARM 3 -6.64635E-08
  PARM 4 2.26551E-10
  PARM 5 -4.40763E-12
  PARM 6 0
  PARM 7 0
  PARM 8 0
  DISZ  0.2
  CONI  0
  DIAM  8.42 1 0 0 1 ""
  POPS 0 0 0 0 0 0 0 0 1 1 1 1 0 0 0 0
SURF 18
  TYPE STANDARD
  CURV 0.0357501635569983 0 0 0 0
  HIDE 0 0 0 0 0 0 0 0 0 0
  MIRR 2 0
  DISZ  3.15
  GLAS  ___BLANK 1 0 1.49782 82.57 0 0 0 0 0 0
  DIAM  8.55 1 0 0 1 ""
  POPS 0 0 0 0 0 0 0 0 1 1 1 1 0 0 0 0
SURF 19
  TYPE STANDARD
  CURV -0.0132639891978072 0 0 0 0
  HIDE 0 0 0 0 0 0 0 0 0 0
  MIRR 2 0
  DISZ  0.25
  DIAM  8.55 1 0 0 1 ""
  POPS 0 0 0 0 0 0 0 0 1 1 1 1 0 0 0 0
SURF 20
  TYPE STANDARD
  CURV 0.0108736546570776 0 0 0 0
  HIDE 0 0 0 0 0 0 0 0 0 0
  MIRR 2 0
  DISZ  3.05
  GLAS  ___BLANK 1 0 1.49782 82.57 0 0 0 0 0 0
  DIAM  8.915 1 0 0 1 ""
  POPS 0 0 0 0 0 0 0 0 1 1 1 1 0 0 0 0
SURF 21
  TYPE STANDARD
  CURV -0.0340225161011557 0 0 0 0
  HIDE 0 0 0 0 0 0 0 0 0 0
  MIRR 2 0
  DISZ  1.579
  DIAM  8.915 1 0 0 1 ""
  POPS 0 0 0 0 0 0 0 0 1 1 1 1 0 0 0 0
SURF 22
  TYPE STANDARD
  CURV 0.0138709722164426 0 0 0 0
  HIDE 0 0 0 0 0 0 0 0 0 0
  MIRR 2 0
  DISZ  1
  GLAS  ___BLANK 1 0 1.79500 45.31 0 0 0 0 0 0
  DIAM  9.065 1 0 0 1 ""
  POPS 0 0 0 0 0 0 0 0 1 1 1 1 0 0 0 0
SURF 23
  TYPE STANDARD
  CURV 0.0476351528373879 0 0 0 0
  HIDE 0 0 0 0 0 0 0 0 0 0
  MIRR 2 0
  DISZ  5.766
  DIAM  9.065 1 0 0 1 ""
  POPS 0 0 0 0 0 0 0 0 1 1 1 1 0 0 0 0
SURF 24
  TYPE STANDARD
  CURV -0.00185794142691016 0 0 0 0
  HIDE 0 0 0 0 0 0 0 0 0 0
  MIRR 2 0
  DISZ  4.8
  GLAS  ___BLANK 1 0 1.49782 82.57 0 0 0 0 0 0
  DIAM  10.935 1 0 0 1 ""
  POPS 0 0 0 0 0 0 0 0 1 1 1 1 0 0 0 0
SURF 25
  TYPE STANDARD
  CURV -0.0496877127255201 0 0 0 0
  HIDE 0 0 0 0 0 0 0 0 0 0
  MIRR 2 0
  DISZ  0.1
  DIAM  10.935 1 0 0 1 ""
  POPS 0 0 0 0 0 0 0 0 1 1 1 1 0 0 0 0
SURF 26
  TYPE EVENASPH
  CURV -0.0256844257347672 0 0 0 0
  HIDE 0 0 0 0 0 0 0 0 0 0
  MIRR 2 0
  PARM 1 0
  PARM 2 -2.67902E-05
  PARM 3 -3.34364E-08
  PARM 4 -1.13765E-10
  PARM 5 -1.88017E-13
  PARM 6 0
  PARM 7 0
  PARM 8 0
  DISZ  1.4
  CONI  -1
  GLAS  ___BLANK 1 0 1.76546 46.75 0 0 0 0 0 0
  DIAM  11.06 1 0 0 1 ""
  POPS 0 0 0 0 0 0 0 0 1 1 1 1 0 0 0 0
SURF 27
  TYPE STANDARD
  CURV 0.00645861320657228 0 0 0 0
  HIDE 0 0 0 0 0 0 0 0 0 0
  MIRR 2 0
  DISZ  21.36
  DIAM  11.815 1 0 0 1 ""
  POPS 0 0 0 0 0 0 0 0 1 1 1 1 0 0 0 0
SURF 28
  TYPE STANDARD
  CURV 0.0 0 0 0 0 ""
  HIDE 0 0 0 0 0 0 0 0 0 0
  MIRR 2 0
  DISZ 0
  DIAM 21.7 1 0 0 1 ""
  POPS 0 0 0 0 0 0 0 0 1 1 1 1 0 0 0 0
TOL TOFF   0   0              0              0   0 0 0 0
MNUM 3 1
SDIA   14   1 5.6335 0 0 0 1 1 1 0 0
SDIA   14   2 6.4355 0 0 0 1 1 1 0 0
SDIA   14   3 8.086 0 0 0 1 1 1 0 0
THIC   8   1 28.616 0 0 0 1 1 1 0 0
THIC   8   2 12.942 0 0 0 1 1 1 0 0
THIC   8   3 2.214 0 0 0 1 1 1 0 0
THIC   14   1 7.483 0 0 0 1 1 1 0 0
THIC   14   2 6.371 0 0 0 1 1 1 0 0
THIC   14   3 3.521 0 0 0 1 1 1 0 0
THIC   21   1 1.579 0 0 0 1 1 1 0 0
THIC   21   2 2.261 0 0 0 1 1 1 0 0
THIC   21   3 2.007 0 0 0 1 1 1 0 0
THIC   23   1 5.766 0 0 0 1 1 1 0 0
THIC   23   2 6.196 0 0 0 1 1 1 0 0
THIC   23   3 9.300 0 0 0 1 1 1 0 0
THIC   27   1 21.360 0 0 0 1 1 1 0 0
THIC   27   2 26.809 0 0 0 1 1 1 0 0
THIC   27   3 36.297 0 0 0 1 1 1 0 0
