VERS 161019 507 33785
MODE SEQ
NAME WO 2020/105104 Example 1 (Nikon Nikkor Z 70-200mm f/2.8 VR S)
NOTE 0 Prepared and converted by Bill Claff.
PFIL 0 0 0
LANG 0
UNIT MM X W X CM MR CPMM
FNUM 2.88277 0
ENVD 20 1 0
GFAC 0 0
RAIM 0 2 1 1 0 1 0 0 0
SDMA 0 1 0
FTYP 3 0 3 3 0 0 0
ROPD 2
HYPR 0
PICB 1
XFLN 0 0 0 0 0 0 0 0 0 0 0 0
YFLN 0 15.19 21.7 0 0 0 0 0 0 0 0 0 0
FWGN 1 1 1 1 1 1 1 1 1 1 1 1
VDXN 0 0 0 0 0 0 0 0 0 0 0 0
VDYN 0 0 0 0 0 0 0 0 0 0 0 0
VCXN 0 0 0 0 0 0 0 0 0 0 0 0
VCYN 0 0 0 0 0 0 0 0 0 0 0 0
VANN 0 0 0 0 0 0 0 0 0 0 0 0
WAVM 1 0.4861327 1
WAVM 2 0.5875618 1
WAVM 3 0.6562725 1
WAVM 4 0.550 1
WAVM 5 0.550 1
WAVM 6 0.550 1
WAVM 7 0.550 1
WAVM 8 0.550 1
WAVM 9 0.550 1
WAVM 10 0.550 1
WAVM 11 0.550 1
WAVM 12 0.550 1
WAVM 13 0.550 1
WAVM 14 0.550 1
WAVM 15 0.550 1
WAVM 16 0.550 1
WAVM 17 0.550 1
WAVM 18 0.550 1
WAVM 19 0.550 1
WAVM 20 0.550 1
WAVM 21 0.550 1
WAVM 22 0.550 1
WAVM 23 0.550 1
WAVM 24 0.550 1
PWAV 2
POLS 1 0 1 0 0 1 0
GSTD 0 100 100 100 100 100 100 0 1 1 0 0 1 1 1 1 1 1
NSCD 100 500 0 1.0E-3 5 1.0E-6 0 0 0 0 0 0 1000000 0 2
SURF 0
  TYPE STANDARD
  CURV 0.0 0 0 0 0 ""
  HIDE 0 0 0 0 0 0 0 0 0 0
  MIRR 2 0
  DISZ INFINITY
  DIAM 0 1 0 0 1 ""
  POPS 0 0 0 0 0 0 0 0 1 1 1 1 0 0 0 0
SURF 1
  TYPE STANDARD
  CURV 0.00859508223774685 0 0 0 0
  HIDE 0 0 0 0 0 0 0 0 0 0
  MIRR 2 0
  DISZ  2.8
  GLAS  ___BLANK 1 0 2.00100 29.12 0 0 0 0 0 0
  DIAM  36.29 1 0 0 1 ""
  POPS 0 0 0 0 0 0 0 0 1 1 1 1 0 0 0 0
SURF 2
  TYPE STANDARD
  CURV 0.0117463263364383 0 0 0 0
  HIDE 0 0 0 0 0 0 0 0 0 0
  MIRR 2 0
  DISZ  9.7
  GLAS  ___BLANK 1 0 1.49782 82.57 0 0 0 0 0 0
  DIAM  36.29 1 0 0 1 ""
  POPS 0 0 0 0 0 0 0 0 1 1 1 1 0 0 0 0
SURF 3
  TYPE STANDARD
  CURV 0 0 0 0 0
  HIDE 0 0 0 0 0 0 0 0 0 0
  MIRR 2 0
  DISZ  0.1
  DIAM  36.29 1 0 0 1 ""
  POPS 0 0 0 0 0 0 0 0 1 1 1 1 0 0 0 0
SURF 4
  TYPE STANDARD
  CURV 0.0108680058948064 0 0 0 0
  HIDE 0 0 0 0 0 0 0 0 0 0
  MIRR 2 0
  DISZ  7.7
  GLAS  ___BLANK 1 0 1.43385 95.25 0 0 0 0 0 0
  DIAM  34.76 1 0 0 1 ""
  POPS 0 0 0 0 0 0 0 0 1 1 1 1 0 0 0 0
SURF 5
  TYPE STANDARD
  CURV 0.00143474575444384 0 0 0 0
  HIDE 0 0 0 0 0 0 0 0 0 0
  MIRR 2 0
  DISZ  1.59716
  DIAM  34.76 1 0 0 1 ""
  POPS 0 0 0 0 0 0 0 0 1 1 1 1 0 0 0 0
SURF 6
  TYPE STANDARD
  CURV 0.0170154840905224 0 0 0 0
  HIDE 0 0 0 0 0 0 0 0 0 0
  MIRR 2 0
  DISZ  1.9
  GLAS  ___BLANK 1 0 1.60300 65.44 0 0 0 0 0 0
  DIAM  23.75 1 0 0 1 ""
  POPS 0 0 0 0 0 0 0 0 1 1 1 1 0 0 0 0
SURF 7
  TYPE STANDARD
  CURV 0.0313700886205004 0 0 0 0
  HIDE 0 0 0 0 0 0 0 0 0 0
  MIRR 2 0
  DISZ  10.3
  DIAM  20.95 1 0 0 1 ""
  POPS 0 0 0 0 0 0 0 0 1 1 1 1 0 0 0 0
SURF 8
  TYPE STANDARD
  CURV -0.00536096733294556 0 0 0 0
  HIDE 0 0 0 0 0 0 0 0 0 0
  MIRR 2 0
  DISZ  1.6
  GLAS  ___BLANK 1 0 1.49782 82.57 0 0 0 0 0 0
  DIAM  21.02 1 0 0 1 ""
  POPS 0 0 0 0 0 0 0 0 1 1 1 1 0 0 0 0
SURF 9
  TYPE STANDARD
  CURV 0.00949228609370595 0 0 0 0
  HIDE 0 0 0 0 0 0 0 0 0 0
  MIRR 2 0
  DISZ  0.8
  DIAM  21.02 1 0 0 1 ""
  POPS 0 0 0 0 0 0 0 0 1 1 1 1 0 0 0 0
SURF 10
  TYPE STANDARD
  CURV 0.0243405535528689 0 0 0 0
  HIDE 0 0 0 0 0 0 0 0 0 0
  MIRR 2 0
  DISZ  3.7
  GLAS  ___BLANK 1 0 1.66382 27.35 0 0 0 0 0 0
  DIAM  20.465 1 0 0 1 ""
  POPS 0 0 0 0 0 0 0 0 1 1 1 1 0 0 0 0
SURF 11
  TYPE STANDARD
  CURV 0.0156228274505577 0 0 0 0
  HIDE 0 0 0 0 0 0 0 0 0 0
  MIRR 2 0
  DISZ  5.5
  DIAM  19.02 1 0 0 1 ""
  POPS 0 0 0 0 0 0 0 0 1 1 1 1 0 0 0 0
SURF 12
  TYPE STANDARD
  CURV -0.013961956461035 0 0 0 0
  HIDE 0 0 0 0 0 0 0 0 0 0
  MIRR 2 0
  DISZ  1.9
  GLAS  ___BLANK 1 0 1.49782 82.57 0 0 0 0 0 0
  DIAM  19.02 1 0 0 1 ""
  POPS 0 0 0 0 0 0 0 0 1 1 1 1 0 0 0 0
SURF 13
  TYPE STANDARD
  CURV 0.0112766523678715 0 0 0 0
  HIDE 0 0 0 0 0 0 0 0 0 0
  MIRR 2 0
  DISZ  37.80333
  DIAM  20.465 1 0 0 1 ""
  POPS 0 0 0 0 0 0 0 0 1 1 1 1 0 0 0 0
SURF 14
  TYPE STANDARD
  CURV 0.0143962155228634 0 0 0 0
  HIDE 0 0 0 0 0 0 0 0 0 0
  MIRR 2 0
  DISZ  3.2
  GLAS  ___BLANK 1 0 1.94595 17.98 0 0 0 0 0 0
  DIAM  20.42 1 0 0 1 ""
  POPS 0 0 0 0 0 0 0 0 1 1 1 1 0 0 0 0
SURF 15
  TYPE STANDARD
  CURV 0.0049546672717967 0 0 0 0
  HIDE 0 0 0 0 0 0 0 0 0 0
  MIRR 2 0
  DISZ  14.09965
  DIAM  20.42 1 0 0 1 ""
  POPS 0 0 0 0 0 0 0 0 1 1 1 1 0 0 0 0
SURF 16
  TYPE STANDARD
  CURV 0.00791981347255309 0 0 0 0
  HIDE 0 0 0 0 0 0 0 0 0 0
  MIRR 2 0
  DISZ  4.7
  GLAS  ___BLANK 1 0 1.49782 82.57 0 0 0 0 0 0
  DIAM  20.42 1 0 0 1 ""
  POPS 0 0 0 0 0 0 0 0 1 1 1 1 0 0 0 0
SURF 17
  TYPE STANDARD
  CURV -0.00791981347255309 0 0 0 0
  HIDE 0 0 0 0 0 0 0 0 0 0
  MIRR 2 0
  DISZ  0.1
  DIAM  20.42 1 0 0 1 ""
  POPS 0 0 0 0 0 0 0 0 1 1 1 1 0 0 0 0
SURF 18
  TYPE STANDARD
  CURV 0.0209804147828003 0 0 0 0
  HIDE 0 0 0 0 0 0 0 0 0 0
  MIRR 2 0
  DISZ  3.85
  GLAS  ___BLANK 1 0 1.49782 82.57 0 0 0 0 0 0
  DIAM  19.4 1 0 0 1 ""
  POPS 0 0 0 0 0 0 0 0 1 1 1 1 0 0 0 0
SURF 19
  TYPE STANDARD
  CURV 0.00813893487387093 0 0 0 0
  HIDE 0 0 0 0 0 0 0 0 0 0
  MIRR 2 0
  DISZ  4.24982
  DIAM  19.4 1 0 0 1 ""
  POPS 0 0 0 0 0 0 0 0 1 1 1 1 0 0 0 0
SURF 20
  STOP
  TYPE STANDARD
  CURV 0 0 0 0 0
  HIDE 0 0 0 0 0 0 0 0 0 0
  MIRR 2 0
  DISZ  3.5
  DIAM  16.168 1 0 0 1 ""
  POPS 0 0 0 0 0 0 0 0 1 1 1 1 0 0 0 0
SURF 21
  TYPE STANDARD
  CURV -0.011789477655403 0 0 0 0
  HIDE 0 0 0 0 0 0 0 0 0 0
  MIRR 2 0
  DISZ  1.8
  GLAS  ___BLANK 1 0 1.92286 20.88 0 0 0 0 0 0
  DIAM  17.52 1 0 0 1 ""
  POPS 0 0 0 0 0 0 0 0 1 1 1 1 0 0 0 0
SURF 22
  TYPE STANDARD
  CURV 0.0191677368653083 0 0 0 0
  HIDE 0 0 0 0 0 0 0 0 0 0
  MIRR 2 0
  DISZ  5
  GLAS  ___BLANK 1 0 1.49782 82.57 0 0 0 0 0 0
  DIAM  17.52 1 0 0 1 ""
  POPS 0 0 0 0 0 0 0 0 1 1 1 1 0 0 0 0
SURF 23
  TYPE STANDARD
  CURV -0.00585026253053106 0 0 0 0
  HIDE 0 0 0 0 0 0 0 0 0 0
  MIRR 2 0
  DISZ  5.35666
  DIAM  17.52 1 0 0 1 ""
  POPS 0 0 0 0 0 0 0 0 1 1 1 1 0 0 0 0
SURF 24
  TYPE STANDARD
  CURV 0.00895729074201301 0 0 0 0
  HIDE 0 0 0 0 0 0 0 0 0 0
  MIRR 2 0
  DISZ  1.7
  GLAS  ___BLANK 1 0 1.85026 32.35 0 0 0 0 0 0
  DIAM  17.26 1 0 0 1 ""
  POPS 0 0 0 0 0 0 0 0 1 1 1 1 0 0 0 0
SURF 25
  TYPE STANDARD
  CURV 0.016513531187455 0 0 0 0
  HIDE 0 0 0 0 0 0 0 0 0 0
  MIRR 2 0
  DISZ  2
  DIAM  17.26 1 0 0 1 ""
  POPS 0 0 0 0 0 0 0 0 1 1 1 1 0 0 0 0
SURF 26
  TYPE EVENASPH
  CURV 0.0170408264119177 0 0 0 0
  HIDE 0 0 0 0 0 0 0 0 0 0
  MIRR 2 0
  PARM 1 0
  PARM 2 -2.00E-06
  PARM 3 8.31E-10
  PARM 4 -6.83E-12
  PARM 5 2.63E-14
  PARM 6 -3.55E-17
  PARM 7 0
  PARM 8 0
  DISZ  7.7
  CONI  0
  GLAS  ___BLANK 1 0 1.59306 66.97 0 0 0 0 0 0
  DIAM  17.67 1 0 0 1 ""
  POPS 0 0 0 0 0 0 0 0 1 1 1 1 0 0 0 0
SURF 27
  TYPE STANDARD
  CURV -0.0179086301688784 0 0 0 0
  HIDE 0 0 0 0 0 0 0 0 0 0
  MIRR 2 0
  DISZ  1.7
  GLAS  ___BLANK 1 0 1.62004 36.40 0 0 0 0 0 0
  DIAM  17.67 1 0 0 1 ""
  POPS 0 0 0 0 0 0 0 0 1 1 1 1 0 0 0 0
SURF 28
  TYPE STANDARD
  CURV -0.0104319995326464 0 0 0 0
  HIDE 0 0 0 0 0 0 0 0 0 0
  MIRR 2 0
  DISZ  1.3
  DIAM  17.67 1 0 0 1 ""
  POPS 0 0 0 0 0 0 0 0 1 1 1 1 0 0 0 0
SURF 29
  TYPE STANDARD
  CURV 0.0172297047000911 0 0 0 0
  HIDE 0 0 0 0 0 0 0 0 0 0
  MIRR 2 0
  DISZ  2.7
  GLAS  ___BLANK 1 0 1.80100 34.92 0 0 0 0 0 0
  DIAM  17.12 1 0 0 1 ""
  POPS 0 0 0 0 0 0 0 0 1 1 1 1 0 0 0 0
SURF 30
  TYPE STANDARD
  CURV 0.00739096115015181 0 0 0 0
  HIDE 0 0 0 0 0 0 0 0 0 0
  MIRR 2 0
  DISZ  3.81632
  DIAM  17.12 1 0 0 1 ""
  POPS 0 0 0 0 0 0 0 0 1 1 1 1 0 0 0 0
SURF 31
  TYPE STANDARD
  CURV -0.00270792827239592 0 0 0 0
  HIDE 0 0 0 0 0 0 0 0 0 0
  MIRR 2 0
  DISZ  2
  GLAS  ___BLANK 1 0 1.94595 17.98 0 0 0 0 0 0
  DIAM  14.73 1 0 0 1 ""
  POPS 0 0 0 0 0 0 0 0 1 1 1 1 0 0 0 0
SURF 32
  TYPE STANDARD
  CURV -0.0101366419332603 0 0 0 0
  HIDE 0 0 0 0 0 0 0 0 0 0
  MIRR 2 0
  DISZ  0.8
  DIAM  14.73 1 0 0 1 ""
  POPS 0 0 0 0 0 0 0 0 1 1 1 1 0 0 0 0
SURF 33
  TYPE STANDARD
  CURV 0.000743538538569054 0 0 0 0
  HIDE 0 0 0 0 0 0 0 0 0 0
  MIRR 2 0
  DISZ  1.25
  GLAS  ___BLANK 1 0 1.71300 53.96 0 0 0 0 0 0
  DIAM  14.38 1 0 0 1 ""
  POPS 0 0 0 0 0 0 0 0 1 1 1 1 0 0 0 0
SURF 34
  TYPE STANDARD
  CURV 0.0269315292799586 0 0 0 0
  HIDE 0 0 0 0 0 0 0 0 0 0
  MIRR 2 0
  DISZ  28.12371
  DIAM  13.37 1 0 0 1 ""
  POPS 0 0 0 0 0 0 0 0 1 1 1 1 0 0 0 0
SURF 35
  TYPE STANDARD
  CURV 0.0083752163946536 0 0 0 0
  HIDE 0 0 0 0 0 0 0 0 0 0
  MIRR 2 0
  DISZ  3.85
  GLAS  ___BLANK 1 0 1.90265 35.77 0 0 0 0 0 0
  DIAM  17.87 1 0 0 1 ""
  POPS 0 0 0 0 0 0 0 0 1 1 1 1 0 0 0 0
SURF 36
  TYPE STANDARD
  CURV -0.0083752163946536 0 0 0 0
  HIDE 0 0 0 0 0 0 0 0 0 0
  MIRR 2 0
  DISZ  3.7896
  DIAM  17.87 1 0 0 1 ""
  POPS 0 0 0 0 0 0 0 0 1 1 1 1 0 0 0 0
SURF 37
  TYPE EVENASPH
  CURV -0.0120148262956488 0 0 0 0
  HIDE 0 0 0 0 0 0 0 0 0 0
  MIRR 2 0
  PARM 1 0
  PARM 2 1.18E-06
  PARM 3 1.63E-09
  PARM 4 -7.32E-12
  PARM 5 2.41E-14
  PARM 6 -2.65E-17
  PARM 7 0
  PARM 8 0
  DISZ  1.9
  CONI  0
  GLAS  ___BLANK 1 0 1.51696 64.14 0 0 0 0 0 0
  DIAM  18.11 1 0 0 1 ""
  POPS 0 0 0 0 0 0 0 0 1 1 1 1 0 0 0 0
SURF 38
  TYPE STANDARD
  CURV -0.00298258794980782 0 0 0 0
  HIDE 0 0 0 0 0 0 0 0 0 0
  MIRR 2 0
  DISZ  4.1
  DIAM  18.895 1 0 0 1 ""
  POPS 0 0 0 0 0 0 0 0 1 1 1 1 0 0 0 0
SURF 39
  TYPE STANDARD
  CURV -0.0182778934362257 0 0 0 0
  HIDE 0 0 0 0 0 0 0 0 0 0
  MIRR 2 0
  DISZ  1.9
  GLAS  ___BLANK 1 0 1.56384 60.71 0 0 0 0 0 0
  DIAM  18.08 1 0 0 1 ""
  POPS 0 0 0 0 0 0 0 0 1 1 1 1 0 0 0 0
SURF 40
  TYPE STANDARD
  CURV -0.00361470694124944 0 0 0 0
  HIDE 0 0 0 0 0 0 0 0 0 0
  MIRR 2 0
  DISZ  32.5469
  DIAM  18.74 1 0 0 1 ""
  POPS 0 0 0 0 0 0 0 0 1 1 1 1 0 0 0 0
SURF 41
  TYPE STANDARD
  CURV 0.0 0 0 0 0 ""
  HIDE 0 0 0 0 0 0 0 0 0 0
  MIRR 2 0
  DISZ 0
  DIAM 21.7 1 0 0 1 ""
  POPS 0 0 0 0 0 0 0 0 1 1 1 1 0 0 0 0
TOL TOFF   0   0              0              0   0 0 0 0
MNUM 6 1
THIC   0   1 1.00E+10 0 0 0 1 1 1 0 0
THIC   0   2 1.00E+10 0 0 0 1 1 1 0 0
THIC   0   3 1.00E+10 0 0 0 1 1 1 0 0
THIC   0   4 767.56691 0 0 0 1 1 1 0 0
THIC   0   5 767.56691 0 0 0 1 1 1 0 0
THIC   0   6 767.56691 0 0 0 1 1 1 0 0
THIC   5   1 1.59716 0 0 0 1 1 1 0 0
THIC   5   2 33.49859 0 0 0 1 1 1 0 0
THIC   5   3 49.53103 0 0 0 1 1 1 0 0
THIC   5   4 1.59716 0 0 0 1 1 1 0 0
THIC   5   5 33.49859 0 0 0 1 1 1 0 0
THIC   5   6 49.53103 0 0 0 1 1 1 0 0
THIC   13   1 37.80333 0 0 0 1 1 1 0 0
THIC   13   2 11.65214 0 0 0 1 1 1 0 0
THIC   13   3 1.60516 0 0 0 1 1 1 0 0
THIC   13   4 37.80333 0 0 0 1 1 1 0 0
THIC   13   5 11.65214 0 0 0 1 1 1 0 0
THIC   13   6 1.60516 0 0 0 1 1 1 0 0
THIC   15   1 14.09965 0 0 0 1 1 1 0 0
THIC   15   2 8.34942 0 0 0 1 1 1 0 0
THIC   15   3 2.36395 0 0 0 1 1 1 0 0
THIC   15   4 14.09965 0 0 0 1 1 1 0 0
THIC   15   5 8.34942 0 0 0 1 1 1 0 0
THIC   15   6 2.36395 0 0 0 1 1 1 0 0
THIC   19   1 4.24982 0 0 0 1 1 1 0 0
THIC   19   2 7.07950 0 0 0 1 1 1 0 0
THIC   19   3 8.12305 0 0 0 1 1 1 0 0
THIC   19   4 4.24982 0 0 0 1 1 1 0 0
THIC   19   5 7.07950 0 0 0 1 1 1 0 0
THIC   19   6 8.12305 0 0 0 1 1 1 0 0
THIC   23   1 5.35666 0 0 0 1 1 1 0 0
THIC   23   2 2.52698 0 0 0 1 1 1 0 0
THIC   23   3 1.48342 0 0 0 1 1 1 0 0
THIC   23   4 5.35666 0 0 0 1 1 1 0 0
THIC   23   5 2.52698 0 0 0 1 1 1 0 0
THIC   23   6 1.48342 0 0 0 1 1 1 0 0
THIC   30   1 3.81632 0 0 0 1 1 1 0 0
THIC   30   2 6.22894 0 0 0 1 1 1 0 0
THIC   30   3 4.10722 0 0 0 1 1 1 0 0
THIC   30   4 5.10137 0 0 0 1 1 1 0 0
THIC   30   5 11.89468 0 0 0 1 1 1 0 0
THIC   30   6 15.63265 0 0 0 1 1 1 0 0
THIC   34   1 28.12371 0 0 0 1 1 1 0 0
THIC   34   2 22.59291 0 0 0 1 1 1 0 0
THIC   34   3 27.70989 0 0 0 1 1 1 0 0
THIC   34   4 24.58984 0 0 0 1 1 1 0 0
THIC   34   5 10.97816 0 0 0 1 1 1 0 0
THIC   34   6 4.65903 0 0 0 1 1 1 0 0
THIC   36   1 3.78960 0 0 0 1 1 1 0 0
THIC   36   2 6.90778 0 0 0 1 1 1 0 0
THIC   36   3 3.91252 0 0 0 1 1 1 0 0
THIC   36   4 6.03843 0 0 0 1 1 1 0 0
THIC   36   5 12.85680 0 0 0 1 1 1 0 0
THIC   36   6 15.43795 0 0 0 1 1 1 0 0
THIC   40   1 32.54690 0 0 0 1 1 1 0 0
THIC   40   2 32.54690 0 0 0 1 1 1 0 0
THIC   40   3 32.54690 0 0 0 1 1 1 0 0
THIC   40   4 32.54690 0 0 0 1 1 1 0 0
THIC   40   5 32.54690 0 0 0 1 1 1 0 0
THIC   40   6 32.54690 0 0 0 1 1 1 0 0
