VERS 161019 507 33785
MODE SEQ
NAME WO 2020/157904 Example 1 (Nikon Nikkor Z 24-200mm f/4-6.3 VR)
NOTE 0 Prepared and converted by Bill Claff.
PFIL 0 0 0
LANG 0
UNIT MM X W X CM MR CPMM
FLOA
ENVD 20 1 0
GFAC 0 0
RAIM 0 2 1 1 0 1 0 0 0
SDMA 0 1 0
FTYP 3 0 3 3 0 0 0
ROPD 2
HYPR 0
PICB 1
XFLN 0 0 0 0 0 0 0 0 0 0 0 0
YFLN 0 14.35 20.5 0 0 0 0 0 0 0 0 0 0
FWGN 1 1 1 1 1 1 1 1 1 1 1 1
VDXN 0 0 0 0 0 0 0 0 0 0 0 0
VDYN 0 0 0 0 0 0 0 0 0 0 0 0
VCXN 0 0 0 0 0 0 0 0 0 0 0 0
VCYN 0 0 0 0 0 0 0 0 0 0 0 0
VANN 0 0 0 0 0 0 0 0 0 0 0 0
WAVM 1 0.4861327 1
WAVM 2 0.5875618 1
WAVM 3 0.6562725 1
WAVM 4 0.550 1
WAVM 5 0.550 1
WAVM 6 0.550 1
WAVM 7 0.550 1
WAVM 8 0.550 1
WAVM 9 0.550 1
WAVM 10 0.550 1
WAVM 11 0.550 1
WAVM 12 0.550 1
WAVM 13 0.550 1
WAVM 14 0.550 1
WAVM 15 0.550 1
WAVM 16 0.550 1
WAVM 17 0.550 1
WAVM 18 0.550 1
WAVM 19 0.550 1
WAVM 20 0.550 1
WAVM 21 0.550 1
WAVM 22 0.550 1
WAVM 23 0.550 1
WAVM 24 0.550 1
PWAV 2
POLS 1 0 1 0 0 1 0
GSTD 0 100 100 100 100 100 100 0 1 1 0 0 1 1 1 1 1 1
NSCD 100 500 0 1.0E-3 5 1.0E-6 0 0 0 0 0 0 1000000 0 2
SURF 0
  TYPE STANDARD
  CURV 0.0 0 0 0 0 ""
  HIDE 0 0 0 0 0 0 0 0 0 0
  MIRR 2 0
  DISZ INFINITY
  DIAM 0 1 0 0 1 ""
  POPS 0 0 0 0 0 0 0 0 1 1 1 1 0 0 0 0
SURF 1
  TYPE STANDARD
  CURV 0.00538400326485958 0 0 0 0
  HIDE 0 0 0 0 0 0 0 0 0 0
  MIRR 2 0
  DISZ  2
  GLAS  ___BLANK 1 0 1.90366 31.27 0 0 0 0 0 0
  DIAM  27.09 1 0 0 1 ""
  POPS 0 0 0 0 0 0 0 0 1 1 1 1 0 0 0 0
SURF 2
  TYPE STANDARD
  CURV 0.0131611330682681 0 0 0 0
  HIDE 0 0 0 0 0 0 0 0 0 0
  MIRR 2 0
  DISZ  1.0263
  DIAM  26.41 1 0 0 1 ""
  POPS 0 0 0 0 0 0 0 0 1 1 1 1 0 0 0 0
SURF 3
  TYPE STANDARD
  CURV 0.0122551873144105 0 0 0 0
  HIDE 0 0 0 0 0 0 0 0 0 0
  MIRR 2 0
  DISZ  6.4204
  GLAS  ___BLANK 1 0 1.59319 67.90 0 0 0 0 0 0
  DIAM  26.41 1 0 0 1 ""
  POPS 0 0 0 0 0 0 0 0 1 1 1 1 0 0 0 0
SURF 4
  TYPE STANDARD
  CURV -0.00202264717589911 0 0 0 0
  HIDE 0 0 0 0 0 0 0 0 0 0
  MIRR 2 0
  DISZ  0.1
  DIAM  26.41 1 0 0 1 ""
  POPS 0 0 0 0 0 0 0 0 1 1 1 1 0 0 0 0
SURF 5
  TYPE STANDARD
  CURV 0.0169113170533721 0 0 0 0
  HIDE 0 0 0 0 0 0 0 0 0 0
  MIRR 2 0
  DISZ  6.13
  GLAS  ___BLANK 1 0 1.59319 67.90 0 0 0 0 0 0
  DIAM  25.64 1 0 0 1 ""
  POPS 0 0 0 0 0 0 0 0 1 1 1 1 0 0 0 0
SURF 6
  TYPE STANDARD
  CURV 0.00256320281419163 0 0 0 0
  HIDE 0 0 0 0 0 0 0 0 0 0
  MIRR 2 0
  DISZ  1.5
  DIAM  25.64 1 0 0 1 ""
  POPS 0 0 0 0 0 0 0 0 1 1 1 1 0 0 0 0
SURF 7
  TYPE STANDARD
  CURV 0.00423679085124331 0 0 0 0
  HIDE 0 0 0 0 0 0 0 0 0 0
  MIRR 2 0
  DISZ  1.25
  GLAS  ___BLANK 1 0 1.95375 32.33 0 0 0 0 0 0
  DIAM  13.27 1 0 0 1 ""
  POPS 0 0 0 0 0 0 0 0 1 1 1 1 0 0 0 0
SURF 8
  TYPE STANDARD
  CURV 0.0525226635293129 0 0 0 0
  HIDE 0 0 0 0 0 0 0 0 0 0
  MIRR 2 0
  DISZ  5.0675
  DIAM  11.22 1 0 0 1 ""
  POPS 0 0 0 0 0 0 0 0 1 1 1 1 0 0 0 0
SURF 9
  TYPE STANDARD
  CURV -0.0214270409256482 0 0 0 0
  HIDE 0 0 0 0 0 0 0 0 0 0
  MIRR 2 0
  DISZ  1.1
  GLAS  ___BLANK 1 0 1.75500 52.33 0 0 0 0 0 0
  DIAM  11.22 1 0 0 1 ""
  POPS 0 0 0 0 0 0 0 0 1 1 1 1 0 0 0 0
SURF 10
  TYPE STANDARD
  CURV 0.0146711032082769 0 0 0 0
  HIDE 0 0 0 0 0 0 0 0 0 0
  MIRR 2 0
  DISZ  0.4169
  DIAM  11.22 1 0 0 1 ""
  POPS 0 0 0 0 0 0 0 0 1 1 1 1 0 0 0 0
SURF 11
  TYPE STANDARD
  CURV 0.0269389294469438 0 0 0 0
  HIDE 0 0 0 0 0 0 0 0 0 0
  MIRR 2 0
  DISZ  3.384
  GLAS  ___BLANK 1 0 1.92286 20.88 0 0 0 0 0 0
  DIAM  9.6 1 0 0 1 ""
  POPS 0 0 0 0 0 0 0 0 1 1 1 1 0 0 0 0
SURF 12
  TYPE STANDARD
  CURV -0.0190265991856616 0 0 0 0
  HIDE 0 0 0 0 0 0 0 0 0 0
  MIRR 2 0
  DISZ  0.5124
  DIAM  9.6 1 0 0 1 ""
  POPS 0 0 0 0 0 0 0 0 1 1 1 1 0 0 0 0
SURF 13
  TYPE STANDARD
  CURV -0.0303621905713253 0 0 0 0
  HIDE 0 0 0 0 0 0 0 0 0 0
  MIRR 2 0
  DISZ  1
  GLAS  ___BLANK 1 0 1.81600 46.59 0 0 0 0 0 0
  DIAM  9.22 1 0 0 1 ""
  POPS 0 0 0 0 0 0 0 0 1 1 1 1 0 0 0 0
SURF 14
  TYPE STANDARD
  CURV 0.00239918849848227 0 0 0 0
  HIDE 0 0 0 0 0 0 0 0 0 0
  MIRR 2 0
  DISZ  18.83905
  DIAM  9.51 1 0 0 1 ""
  POPS 0 0 0 0 0 0 0 0 1 1 1 1 0 0 0 0
SURF 15
  STOP
  TYPE STANDARD
  CURV 0 0 0 0 0
  HIDE 0 0 0 0 0 0 0 0 0 0
  MIRR 2 0
  DISZ  2
  DIAM  6.3615 1 0 0 1 ""
  POPS 0 0 0 0 0 0 0 0 1 1 1 1 0 0 0 0
SURF 16
  TYPE STANDARD
  CURV 0.0251127562756778 0 0 0 0
  HIDE 0 0 0 0 0 0 0 0 0 0
  MIRR 2 0
  DISZ  2.5136
  GLAS  ___BLANK 1 0 1.90265 35.72 0 0 0 0 0 0
  DIAM  8.49 1 0 0 1 ""
  POPS 0 0 0 0 0 0 0 0 1 1 1 1 0 0 0 0
SURF 17
  TYPE STANDARD
  CURV -0.00341849838356304 0 0 0 0
  HIDE 0 0 0 0 0 0 0 0 0 0
  MIRR 2 0
  DISZ  0.5
  DIAM  8.49 1 0 0 1 ""
  POPS 0 0 0 0 0 0 0 0 1 1 1 1 0 0 0 0
SURF 18
  TYPE STANDARD
  CURV 0.0272360081816969 0 0 0 0
  HIDE 0 0 0 0 0 0 0 0 0 0
  MIRR 2 0
  DISZ  1
  GLAS  ___BLANK 1 0 2.00100 29.12 0 0 0 0 0 0
  DIAM  9.17 1 0 0 1 ""
  POPS 0 0 0 0 0 0 0 0 1 1 1 1 0 0 0 0
SURF 19
  TYPE STANDARD
  CURV 0.0477436357733514 0 0 0 0
  HIDE 0 0 0 0 0 0 0 0 0 0
  MIRR 2 0
  DISZ  3.3404
  GLAS  ___BLANK 1 0 1.57957 53.74 0 0 0 0 0 0
  DIAM  8.83 1 0 0 1 ""
  POPS 0 0 0 0 0 0 0 0 1 1 1 1 0 0 0 0
SURF 20
  TYPE STANDARD
  CURV -0.0131471694144251 0 0 0 0
  HIDE 0 0 0 0 0 0 0 0 0 0
  MIRR 2 0
  DISZ  1.4447
  DIAM  8.83 1 0 0 1 ""
  POPS 0 0 0 0 0 0 0 0 1 1 1 1 0 0 0 0
SURF 21
  TYPE STANDARD
  CURV -0.0281194288381614 0 0 0 0
  HIDE 0 0 0 0 0 0 0 0 0 0
  MIRR 2 0
  DISZ  1
  GLAS  ___BLANK 1 0 1.95375 32.33 0 0 0 0 0 0
  DIAM  7.89 1 0 0 1 ""
  POPS 0 0 0 0 0 0 0 0 1 1 1 1 0 0 0 0
SURF 22
  TYPE STANDARD
  CURV -0.00344636728763312 0 0 0 0
  HIDE 0 0 0 0 0 0 0 0 0 0
  MIRR 2 0
  DISZ  12.23175
  DIAM  7.98 1 0 0 1 ""
  POPS 0 0 0 0 0 0 0 0 1 1 1 1 0 0 0 0
SURF 23
  TYPE STANDARD
  CURV 0.0269270331256362 0 0 0 0
  HIDE 0 0 0 0 0 0 0 0 0 0
  MIRR 2 0
  DISZ  4.6344
  GLAS  ___BLANK 1 0 1.83481 42.73 0 0 0 0 0 0
  DIAM  10.91 1 0 0 1 ""
  POPS 0 0 0 0 0 0 0 0 1 1 1 1 0 0 0 0
SURF 24
  TYPE STANDARD
  CURV -0.0269270331256362 0 0 0 0
  HIDE 0 0 0 0 0 0 0 0 0 0
  MIRR 2 0
  DISZ  1
  GLAS  ___BLANK 1 0 1.90366 31.27 0 0 0 0 0 0
  DIAM  10.91 1 0 0 1 ""
  POPS 0 0 0 0 0 0 0 0 1 1 1 1 0 0 0 0
SURF 25
  TYPE STANDARD
  CURV -0.0032364889532159 0 0 0 0
  HIDE 0 0 0 0 0 0 0 0 0 0
  MIRR 2 0
  DISZ  0.1
  DIAM  11.21 1 0 0 1 ""
  POPS 0 0 0 0 0 0 0 0 1 1 1 1 0 0 0 0
SURF 26
  TYPE STANDARD
  CURV 0.0316006686701491 0 0 0 0
  HIDE 0 0 0 0 0 0 0 0 0 0
  MIRR 2 0
  DISZ  2.7756
  GLAS  ___BLANK 1 0 1.95375 32.33 0 0 0 0 0 0
  DIAM  11.48 1 0 0 1 ""
  POPS 0 0 0 0 0 0 0 0 1 1 1 1 0 0 0 0
SURF 27
  TYPE STANDARD
  CURV 0.0654703059427397 0 0 0 0
  HIDE 0 0 0 0 0 0 0 0 0 0
  MIRR 2 0
  DISZ  8.703
  GLAS  ___BLANK 1 0 1.49710 81.49 0 0 0 0 0 0
  DIAM  11.04 1 0 0 1 ""
  POPS 0 0 0 0 0 0 0 0 1 1 1 1 0 0 0 0
SURF 28
  TYPE EVENASPH
  CURV -0.0248080477306838 0 0 0 0
  HIDE 0 0 0 0 0 0 0 0 0 0
  MIRR 2 0
  PARM 1 0
  PARM 2 3.13017E-05
  PARM 3 -1.03090E-07
  PARM 4 6.53525E-10
  PARM 5 -2.57830E-12
  PARM 6 3.26730E-15
  PARM 7 0
  PARM 8 0
  DISZ  5.54311
  CONI  0
  DIAM  11.04 1 0 0 1 ""
  POPS 0 0 0 0 0 0 0 0 1 1 1 1 0 0 0 0
SURF 29
  TYPE STANDARD
  CURV 0.000732336394035647 0 0 0 0
  HIDE 0 0 0 0 0 0 0 0 0 0
  MIRR 2 0
  DISZ  3.0634
  GLAS  ___BLANK 1 0 1.84666 23.80 0 0 0 0 0 0
  DIAM  11.48 1 0 0 1 ""
  POPS 0 0 0 0 0 0 0 0 1 1 1 1 0 0 0 0
SURF 30
  TYPE STANDARD
  CURV -0.0283084832031615 0 0 0 0
  HIDE 0 0 0 0 0 0 0 0 0 0
  MIRR 2 0
  DISZ  1
  GLAS  ___BLANK 1 0 1.85135 40.13 0 0 0 0 0 0
  DIAM  11.78 1 0 0 1 ""
  POPS 0 0 0 0 0 0 0 0 1 1 1 1 0 0 0 0
SURF 31
  TYPE EVENASPH
  CURV 0.0306613029827316 0 0 0 0
  HIDE 0 0 0 0 0 0 0 0 0 0
  MIRR 2 0
  PARM 1 0
  PARM 2 -6.66636E-06
  PARM 3 5.10546E-08
  PARM 4 1.72567E-11
  PARM 5 -2.40595E-12
  PARM 6 9.84450E-15
  PARM 7 0
  PARM 8 0
  DISZ  10.05055
  CONI  0
  DIAM  11.78 1 0 0 1 ""
  POPS 0 0 0 0 0 0 0 0 1 1 1 1 0 0 0 0
SURF 32
  TYPE STANDARD
  CURV -0.058824221461429 0 0 0 0
  HIDE 0 0 0 0 0 0 0 0 0 0
  MIRR 2 0
  DISZ  1.4
  GLAS  ___BLANK 1 0 1.82080 42.51 0 0 0 0 0 0
  DIAM  13.31 1 0 0 1 ""
  POPS 0 0 0 0 0 0 0 0 1 1 1 1 0 0 0 0
SURF 33
  TYPE EVENASPH
  CURV -0.0443659659801773 0 0 0 0
  HIDE 0 0 0 0 0 0 0 0 0 0
  MIRR 2 0
  PARM 1 0
  PARM 2 -1.93366E-06
  PARM 3 -2.05750E-08
  PARM 4 8.81224E-11
  PARM 5 -2.94021E-13
  PARM 6 0
  PARM 7 0
  PARM 8 0
  DISZ  0.1
  CONI  0
  DIAM  14.67 1 0 0 1 ""
  POPS 0 0 0 0 0 0 0 0 1 1 1 1 0 0 0 0
SURF 34
  TYPE STANDARD
  CURV 0.00159553352726512 0 0 0 0
  HIDE 0 0 0 0 0 0 0 0 0 0
  MIRR 2 0
  DISZ  3.553
  GLAS  ___BLANK 1 0 1.68376 37.57 0 0 0 0 0 0
  DIAM  17.37 1 0 0 1 ""
  POPS 0 0 0 0 0 0 0 0 1 1 1 1 0 0 0 0
SURF 35
  TYPE STANDARD
  CURV -0.0128816843059864 0 0 0 0
  HIDE 0 0 0 0 0 0 0 0 0 0
  MIRR 2 0
  DISZ  11.75486
  DIAM  17.37 1 0 0 1 ""
  POPS 0 0 0 0 0 0 0 0 1 1 1 1 0 0 0 0
SURF 36
  TYPE STANDARD
  CURV 0.0 0 0 0 0 ""
  HIDE 0 0 0 0 0 0 0 0 0 0
  MIRR 2 0
  DISZ 0
  DIAM 20.5 1 0 0 1 ""
  POPS 0 0 0 0 0 0 0 0 1 1 1 1 0 0 0 0
TOL TOFF   0   0              0              0   0 0 0 0
MNUM 8 1
SDIA   15   1 6.3615 0 0 0 1 1 1 0 0
SDIA   15   2 6.3615 0 0 0 1 1 1 0 0
SDIA   15   3 6.6895 0 0 0 1 1 1 0 0
SDIA   15   4 7.4115 0 0 0 1 1 1 0 0
SDIA   15   5 6.3615 0 0 0 1 1 1 0 0
SDIA   15   6 6.3615 0 0 0 1 1 1 0 0
SDIA   15   7 6.6895 0 0 0 1 1 1 0 0
SDIA   15   8 7.4115 0 0 0 1 1 1 0 0
THIC   0   1 1.00E+10 0 0 0 1 1 1 0 0
THIC   0   2 1.00E+10 0 0 0 1 1 1 0 0
THIC   0   3 1.00E+10 0 0 0 1 1 1 0 0
THIC   0   4 1.00E+10 0 0 0 1 1 1 0 0
THIC   0   5 365.93400 0 0 0 1 1 1 0 0
THIC   0   6 397.40040 0 0 0 1 1 1 0 0
THIC   0   7 473.88510 0 0 0 1 1 1 0 0
THIC   0   8 503.91470 0 0 0 1 1 1 0 0
THIC   6   1 1.50000 0 0 0 1 1 1 0 0
THIC   6   2 17.29645 0 0 0 1 1 1 0 0
THIC   6   3 38.92328 0 0 0 1 1 1 0 0
THIC   6   4 54.52847 0 0 0 1 1 1 0 0
THIC   6   5 1.50000 0 0 0 1 1 1 0 0
THIC   6   6 17.29645 0 0 0 1 1 1 0 0
THIC   6   7 38.92328 0 0 0 1 1 1 0 0
THIC   6   8 54.52847 0 0 0 1 1 1 0 0
THIC   14   1 18.83905 0 0 0 1 1 1 0 0
THIC   14   2 10.91446 0 0 0 1 1 1 0 0
THIC   14   3 4.55495 0 0 0 1 1 1 0 0
THIC   14   4 1.10018 0 0 0 1 1 1 0 0
THIC   14   5 18.83905 0 0 0 1 1 1 0 0
THIC   14   6 10.91446 0 0 0 1 1 1 0 0
THIC   14   7 4.55495 0 0 0 1 1 1 0 0
THIC   14   8 1.10018 0 0 0 1 1 1 0 0
THIC   22   1 12.23175 0 0 0 1 1 1 0 0
THIC   22   2 6.39417 0 0 0 1 1 1 0 0
THIC   22   3 3.18615 0 0 0 1 1 1 0 0
THIC   22   4 1.47844 0 0 0 1 1 1 0 0
THIC   22   5 12.23175 0 0 0 1 1 1 0 0
THIC   22   6 6.39417 0 0 0 1 1 1 0 0
THIC   22   7 3.18615 0 0 0 1 1 1 0 0
THIC   22   8 1.47844 0 0 0 1 1 1 0 0
THIC   28   1 5.54311 0 0 0 1 1 1 0 0
THIC   28   2 4.42699 0 0 0 1 1 1 0 0
THIC   28   3 5.70823 0 0 0 1 1 1 0 0
THIC   28   4 2.00068 0 0 0 1 1 1 0 0
THIC   28   5 6.43705 0 0 0 1 1 1 0 0
THIC   28   6 6.05192 0 0 0 1 1 1 0 0
THIC   28   7 10.02051 0 0 0 1 1 1 0 0
THIC   28   8 11.69839 0 0 0 1 1 1 0 0
THIC   31   1 10.05055 0 0 0 1 1 1 0 0
THIC   31   2 17.00460 0 0 0 1 1 1 0 0
THIC   31   3 18.93085 0 0 0 1 1 1 0 0
THIC   31   4 24.34574 0 0 0 1 1 1 0 0
THIC   31   5 9.15661 0 0 0 1 1 1 0 0
THIC   31   6 15.37967 0 0 0 1 1 1 0 0
THIC   31   7 14.61857 0 0 0 1 1 1 0 0
THIC   31   8 14.64803 0 0 0 1 1 1 0 0
THIC   35   1 11.75486 0 0 0 1 1 1 0 0
THIC   35   2 22.41624 0 0 0 1 1 1 0 0
THIC   35   3 30.66474 0 0 0 1 1 1 0 0
THIC   35   4 38.48515 0 0 0 1 1 1 0 0
THIC   35   5 11.78171 0 0 0 1 1 1 0 0
THIC   35   6 22.50112 0 0 0 1 1 1 0 0
THIC   35   7 30.88824 0 0 0 1 1 1 0 0
THIC   35   8 39.04500 0 0 0 1 1 1 0 0
THIC   36   1 41.00 0 0 0 1 1 1 0 0
THIC   36   2 43.40 0 0 0 1 1 1 0 0
THIC   36   3 43.40 0 0 0 1 1 1 0 0
THIC   36   4 43.40 0 0 0 1 1 1 0 0
THIC   36   5 41.00 0 0 0 1 1 1 0 0
THIC   36   6 43.40 0 0 0 1 1 1 0 0
THIC   36   7 43.40 0 0 0 1 1 1 0 0
THIC   36   8 43.40 0 0 0 1 1 1 0 0
