VERS 161019 507 33785
MODE SEQ
NAME WO 2021/117563 Example 4 (Nikon Nikkor Z 14-24mm f/2.8 S)
NOTE 0 Prepared and converted by Bill Claff.
PFIL 0 0 0
LANG 0
UNIT MM X W X CM MR CPMM
FLOA
ENVD 20 1 0
GFAC 0 0
RAIM 0 2 1 1 0 1 0 0 0
SDMA 0 1 0
FTYP 3 0 3 3 0 0 0
ROPD 2
HYPR 0
PICB 1
XFLN 0 0 0 0 0 0 0 0 0 0 0 0
YFLN 0 15.12 21.6 0 0 0 0 0 0 0 0 0 0
FWGN 1 1 1 1 1 1 1 1 1 1 1 1
VDXN 0 0 0 0 0 0 0 0 0 0 0 0
VDYN 0 0 0 0 0 0 0 0 0 0 0 0
VCXN 0 0 0 0 0 0 0 0 0 0 0 0
VCYN 0 0 0 0 0 0 0 0 0 0 0 0
VANN 0 0 0 0 0 0 0 0 0 0 0 0
WAVM 1 0.4861327 1
WAVM 2 0.5875618 1
WAVM 3 0.6562725 1
WAVM 4 0.550 1
WAVM 5 0.550 1
WAVM 6 0.550 1
WAVM 7 0.550 1
WAVM 8 0.550 1
WAVM 9 0.550 1
WAVM 10 0.550 1
WAVM 11 0.550 1
WAVM 12 0.550 1
WAVM 13 0.550 1
WAVM 14 0.550 1
WAVM 15 0.550 1
WAVM 16 0.550 1
WAVM 17 0.550 1
WAVM 18 0.550 1
WAVM 19 0.550 1
WAVM 20 0.550 1
WAVM 21 0.550 1
WAVM 22 0.550 1
WAVM 23 0.550 1
WAVM 24 0.550 1
PWAV 2
POLS 1 0 1 0 0 1 0
GSTD 0 100 100 100 100 100 100 0 1 1 0 0 1 1 1 1 1 1
NSCD 100 500 0 1.0E-3 5 1.0E-6 0 0 0 0 0 0 1000000 0 2
SURF 0
  TYPE STANDARD
  CURV 0.0 0 0 0 0 ""
  HIDE 0 0 0 0 0 0 0 0 0 0
  MIRR 2 0
  DISZ INFINITY
  DIAM 0 1 0 0 1 ""
  POPS 0 0 0 0 0 0 0 0 1 1 1 1 0 0 0 0
SURF 1
  TYPE EVENASPH
  CURV 0.0066006600660066 0 0 0 0
  HIDE 0 0 0 0 0 0 0 0 0 0
  MIRR 2 0
  PARM 1 0
  PARM 2 4.50E-06
  PARM 3 -3.56E-09
  PARM 4 2.17E-12
  PARM 5 -5.59E-16
  PARM 6 0
  PARM 7 0
  PARM 8 0
  DISZ  3
  CONI  0
  GLAS  ___BLANK 1 0 1.588870 61.1 0 0 0 0 0 0
  DIAM  33.22 1 0 0 1 ""
  POPS 0 0 0 0 0 0 0 0 1 1 1 1 0 0 0 0
SURF 2
  TYPE EVENASPH
  CURV 0.0623441396508728 0 0 0 0
  HIDE 0 0 0 0 0 0 0 0 0 0
  MIRR 2 0
  PARM 1 0
  PARM 2 3.63E-06
  PARM 3 7.91E-09
  PARM 4 2.28E-11
  PARM 5 -1.36E-13
  PARM 6 1.21E-16
  PARM 7 0
  PARM 8 0
  DISZ  13.37
  CONI  -1
  DIAM  21.58 1 0 0 1 ""
  POPS 0 0 0 0 0 0 0 0 1 1 1 1 0 0 0 0
SURF 3
  TYPE STANDARD
  CURV 0.0112688753662385 0 0 0 0
  HIDE 0 0 0 0 0 0 0 0 0 0
  MIRR 2 0
  DISZ  2
  GLAS  ___BLANK 1 0 1.743104 49.4 0 0 0 0 0 0
  DIAM  20.49 1 0 0 1 ""
  POPS 0 0 0 0 0 0 0 0 1 1 1 1 0 0 0 0
SURF 4
  TYPE EVENASPH
  CURV 0.0364431486880466 0 0 0 0
  HIDE 0 0 0 0 0 0 0 0 0 0
  MIRR 2 0
  PARM 1 0
  PARM 2 2.15E-05
  PARM 3 2.23E-08
  PARM 4 2.16E-11
  PARM 5 1.77E-13
  PARM 6 -1.00E-16
  PARM 7 0
  PARM 8 0
  DISZ  10
  CONI  -1
  DIAM  16.81 1 0 0 1 ""
  POPS 0 0 0 0 0 0 0 0 1 1 1 1 0 0 0 0
SURF 5
  TYPE STANDARD
  CURV -0.013374348000535 0 0 0 0
  HIDE 0 0 0 0 0 0 0 0 0 0
  MIRR 2 0
  DISZ  1.5
  GLAS  ___BLANK 1 0 1.497820 82.6 0 0 0 0 0 0
  DIAM  16.81 1 0 0 1 ""
  POPS 0 0 0 0 0 0 0 0 1 1 1 1 0 0 0 0
SURF 6
  TYPE STANDARD
  CURV 0.0172801105927078 0 0 0 0
  HIDE 0 0 0 0 0 0 0 0 0 0
  MIRR 2 0
  DISZ  0.15
  DIAM  16.81 1 0 0 1 ""
  POPS 0 0 0 0 0 0 0 0 1 1 1 1 0 0 0 0
SURF 7
  TYPE STANDARD
  CURV 0.0269687162891046 0 0 0 0
  HIDE 0 0 0 0 0 0 0 0 0 0
  MIRR 2 0
  DISZ  5.77
  GLAS  ___BLANK 1 0 1.737999 32.3 0 0 0 0 0 0
  DIAM  16.81 1 0 0 1 ""
  POPS 0 0 0 0 0 0 0 0 1 1 1 1 0 0 0 0
SURF 8
  TYPE STANDARD
  CURV -0.00155144594762319 0 0 0 0
  HIDE 0 0 0 0 0 0 0 0 0 0
  MIRR 2 0
  DISZ  19.11
  DIAM  16.81 1 0 0 1 ""
  POPS 0 0 0 0 0 0 0 0 1 1 1 1 0 0 0 0
SURF 9
  TYPE STANDARD
  CURV 0.0306372549019608 0 0 0 0
  HIDE 0 0 0 0 0 0 0 0 0 0
  MIRR 2 0
  DISZ  1.1
  GLAS  ___BLANK 1 0 2.000600 25.4 0 0 0 0 0 0
  DIAM  11.625 1 0 0 1 ""
  POPS 0 0 0 0 0 0 0 0 1 1 1 1 0 0 0 0
SURF 10
  TYPE STANDARD
  CURV 0.0526038926880589 0 0 0 0
  HIDE 0 0 0 0 0 0 0 0 0 0
  MIRR 2 0
  DISZ  5.3
  GLAS  ___BLANK 1 0 1.647690 33.7 0 0 0 0 0 0
  DIAM  11.14 1 0 0 1 ""
  POPS 0 0 0 0 0 0 0 0 1 1 1 1 0 0 0 0
SURF 11
  TYPE STANDARD
  CURV 0.00475511174512601 0 0 0 0
  HIDE 0 0 0 0 0 0 0 0 0 0
  MIRR 2 0
  DISZ  10.68
  DIAM  11.625 1 0 0 1 ""
  POPS 0 0 0 0 0 0 0 0 1 1 1 1 0 0 0 0
SURF 12
  TYPE STANDARD
  CURV 0.034952813701503 0 0 0 0
  HIDE 0 0 0 0 0 0 0 0 0 0
  MIRR 2 0
  DISZ  1.1
  GLAS  ___BLANK 1 0 1.850000 27.0 0 0 0 0 0 0
  DIAM  11.87 1 0 0 1 ""
  POPS 0 0 0 0 0 0 0 0 1 1 1 1 0 0 0 0
SURF 13
  TYPE STANDARD
  CURV 0.0549752611324904 0 0 0 0
  HIDE 0 0 0 0 0 0 0 0 0 0
  MIRR 2 0
  DISZ  6.08
  GLAS  ___BLANK 1 0 1.593490 67.0 0 0 0 0 0 0
  DIAM  11.55 1 0 0 1 ""
  POPS 0 0 0 0 0 0 0 0 1 1 1 1 0 0 0 0
SURF 14
  TYPE STANDARD
  CURV 0.00191241155096577 0 0 0 0
  HIDE 0 0 0 0 0 0 0 0 0 0
  MIRR 2 0
  DISZ  1.95
  DIAM  11.87 1 0 0 1 ""
  POPS 0 0 0 0 0 0 0 0 1 1 1 1 0 0 0 0
SURF 15
  STOP
  TYPE STANDARD
  CURV 0 0 0 0 0
  HIDE 0 0 0 0 0 0 0 0 0 0
  MIRR 2 0
  DISZ  2.88
  DIAM  7.978 1 0 0 1 ""
  POPS 0 0 0 0 0 0 0 0 1 1 1 1 0 0 0 0
SURF 16
  TYPE STANDARD
  CURV -0.0149566257852229 0 0 0 0
  HIDE 0 0 0 0 0 0 0 0 0 0
  MIRR 2 0
  DISZ  1.1
  GLAS  ___BLANK 1 0 1.953750 32.3 0 0 0 0 0 0
  DIAM  10.7 1 0 0 1 ""
  POPS 0 0 0 0 0 0 0 0 1 1 1 1 0 0 0 0
SURF 17
  TYPE STANDARD
  CURV 0.0388802488335925 0 0 0 0
  HIDE 0 0 0 0 0 0 0 0 0 0
  MIRR 2 0
  DISZ  5.35
  GLAS  ___BLANK 1 0 1.846660 23.7 0 0 0 0 0 0
  DIAM  11.845 1 0 0 1 ""
  POPS 0 0 0 0 0 0 0 0 1 1 1 1 0 0 0 0
SURF 18
  TYPE STANDARD
  CURV -0.0127064803049555 0 0 0 0
  HIDE 0 0 0 0 0 0 0 0 0 0
  MIRR 2 0
  DISZ  0.4
  DIAM  11.845 1 0 0 1 ""
  POPS 0 0 0 0 0 0 0 0 1 1 1 1 0 0 0 0
SURF 19
  TYPE STANDARD
  CURV 0.0410509031198686 0 0 0 0
  HIDE 0 0 0 0 0 0 0 0 0 0
  MIRR 2 0
  DISZ  6.27
  GLAS  ___BLANK 1 0 1.497820 82.6 0 0 0 0 0 0
  DIAM  12.355 1 0 0 1 ""
  POPS 0 0 0 0 0 0 0 0 1 1 1 1 0 0 0 0
SURF 20
  TYPE STANDARD
  CURV -0.0182681768359518 0 0 0 0
  HIDE 0 0 0 0 0 0 0 0 0 0
  MIRR 2 0
  DISZ  0.15
  DIAM  12.355 1 0 0 1 ""
  POPS 0 0 0 0 0 0 0 0 1 1 1 1 0 0 0 0
SURF 21
  TYPE STANDARD
  CURV 0.0232018561484919 0 0 0 0
  HIDE 0 0 0 0 0 0 0 0 0 0
  MIRR 2 0
  DISZ  1.1
  GLAS  ___BLANK 1 0 1.834810 42.7 0 0 0 0 0 0
  DIAM  11.18 1 0 0 1 ""
  POPS 0 0 0 0 0 0 0 0 1 1 1 1 0 0 0 0
SURF 22
  TYPE STANDARD
  CURV 0.0591715976331361 0 0 0 0
  HIDE 0 0 0 0 0 0 0 0 0 0
  MIRR 2 0
  DISZ  4.4
  GLAS  ___BLANK 1 0 1.497820 82.6 0 0 0 0 0 0
  DIAM  10.39 1 0 0 1 ""
  POPS 0 0 0 0 0 0 0 0 1 1 1 1 0 0 0 0
SURF 23
  TYPE STANDARD
  CURV 0.0135226504394861 0 0 0 0
  HIDE 0 0 0 0 0 0 0 0 0 0
  MIRR 2 0
  DISZ  0.2
  DIAM  10.39 1 0 0 1 ""
  POPS 0 0 0 0 0 0 0 0 1 1 1 1 0 0 0 0
SURF 24
  TYPE STANDARD
  CURV 0.032020493115594 0 0 0 0
  HIDE 0 0 0 0 0 0 0 0 0 0
  MIRR 2 0
  DISZ  5.73
  GLAS  ___BLANK 1 0 1.497820 82.6 0 0 0 0 0 0
  DIAM  9.865 1 0 0 1 ""
  POPS 0 0 0 0 0 0 0 0 1 1 1 1 0 0 0 0
SURF 25
  TYPE STANDARD
  CURV -0.0431034482758621 0 0 0 0
  HIDE 0 0 0 0 0 0 0 0 0 0
  MIRR 2 0
  DISZ  1.1
  GLAS  ___BLANK 1 0 1.834810 42.7 0 0 0 0 0 0
  DIAM  9.865 1 0 0 1 ""
  POPS 0 0 0 0 0 0 0 0 1 1 1 1 0 0 0 0
SURF 26
  TYPE STANDARD
  CURV 0.0180472838837755 0 0 0 0
  HIDE 0 0 0 0 0 0 0 0 0 0
  MIRR 2 0
  DISZ  3.93
  DIAM  10.81 1 0 0 1 ""
  POPS 0 0 0 0 0 0 0 0 1 1 1 1 0 0 0 0
SURF 27
  TYPE EVENASPH
  CURV -0.0146134736226801 0 0 0 0
  HIDE 0 0 0 0 0 0 0 0 0 0
  MIRR 2 0
  PARM 1 0
  PARM 2 -2.41E-05
  PARM 3 -4.89E-08
  PARM 4 -1.02E-10
  PARM 5 -7.59E-13
  PARM 6 -3.14E-15
  PARM 7 0
  PARM 8 0
  DISZ  2
  CONI  0
  GLAS  ___BLANK 1 0 1.851080 40.1 0 0 0 0 0 0
  DIAM  11.12 1 0 0 1 ""
  POPS 0 0 0 0 0 0 0 0 1 1 1 1 0 0 0 0
SURF 28
  TYPE STANDARD
  CURV -0.0184672206832872 0 0 0 0
  HIDE 0 0 0 0 0 0 0 0 0 0
  MIRR 2 0
  DISZ  22.54
  DIAM  11.82 1 0 0 1 ""
  POPS 0 0 0 0 0 0 0 0 1 1 1 1 0 0 0 0
SURF 29
  TYPE STANDARD
  CURV 0.0 0 0 0 0 ""
  HIDE 0 0 0 0 0 0 0 0 0 0
  MIRR 2 0
  DISZ 0
  DIAM 21.6 1 0 0 1 ""
  POPS 0 0 0 0 0 0 0 0 1 1 1 1 0 0 0 0
TOL TOFF   0   0              0              0   0 0 0 0
MNUM 12 1
SDIA   15   1 7.978 0 0 0 1 1 1 0 0
SDIA   15   2 9.005 0 0 0 1 1 1 0 0
SDIA   15   3 9.581 0 0 0 1 1 1 0 0
SDIA   15   4 10.5785 0 0 0 1 1 1 0 0
SDIA   15   5 7.978 0 0 0 1 1 1 0 0
SDIA   15   6 9.005 0 0 0 1 1 1 0 0
SDIA   15   7 9.581 0 0 0 1 1 1 0 0
SDIA   15   8 10.5785 0 0 0 1 1 1 0 0
SDIA   15   9 7.978 0 0 0 1 1 1 0 0
SDIA   15   10 9.005 0 0 0 1 1 1 0 0
SDIA   15   11 9.581 0 0 0 1 1 1 0 0
SDIA   15   12 10.5785 0 0 0 1 1 1 0 0
THIC   0   1 1.00E+10 0 0 0 1 1 1 0 0
THIC   0   2 1.00E+10 0 0 0 1 1 1 0 0
THIC   0   3 1.00E+10 0 0 0 1 1 1 0 0
THIC   0   4 1.00E+10 0 0 0 1 1 1 0 0
THIC   0   5 553 0 0 0 1 1 1 0 0
THIC   0   6 697 0 0 0 1 1 1 0 0
THIC   0   7 777 0 0 0 1 1 1 0 0
THIC   0   8 909 0 0 0 1 1 1 0 0
THIC   0   9 141 0 0 0 1 1 1 0 0
THIC   0   10 147 0 0 0 1 1 1 0 0
THIC   0   11 149 0 0 0 1 1 1 0 0
THIC   0   12 150 0 0 0 1 1 1 0 0
THIC   8   1 19.11 0 0 0 1 1 1 0 0
THIC   8   2 10.32 0 0 0 1 1 1 0 0
THIC   8   3 6.94 0 0 0 1 1 1 0 0
THIC   8   4 2.78 0 0 0 1 1 1 0 0
THIC   8   5 20.03 0 0 0 1 1 1 0 0
THIC   8   6 11.12 0 0 0 1 1 1 0 0
THIC   8   7 7.69 0 0 0 1 1 1 0 0
THIC   8   8 3.46 0 0 0 1 1 1 0 0
THIC   8   9 22.29 0 0 0 1 1 1 0 0
THIC   8   10 13.66 0 0 0 1 1 1 0 0
THIC   8   11 10.37 0 0 0 1 1 1 0 0
THIC   8   12 6.38 0 0 0 1 1 1 0 0
THIC   11   1 10.68 0 0 0 1 1 1 0 0
THIC   11   2 8.35 0 0 0 1 1 1 0 0
THIC   11   3 7.26 0 0 0 1 1 1 0 0
THIC   11   4 5.72 0 0 0 1 1 1 0 0
THIC   11   5 9.77 0 0 0 1 1 1 0 0
THIC   11   6 7.55 0 0 0 1 1 1 0 0
THIC   11   7 6.52 0 0 0 1 1 1 0 0
THIC   11   8 5.04 0 0 0 1 1 1 0 0
THIC   11   9 7.50 0 0 0 1 1 1 0 0
THIC   11   10 5.02 0 0 0 1 1 1 0 0
THIC   11   11 3.83 0 0 0 1 1 1 0 0
THIC   11   12 2.13 0 0 0 1 1 1 0 0
THIC   28   1 22.54 0 0 0 1 1 1 0 0
THIC   28   2 27.74 0 0 0 1 1 1 0 0
THIC   28   3 30.59 0 0 0 1 1 1 0 0
THIC   28   4 35.22 0 0 0 1 1 1 0 0
THIC   28   5 22.54 0 0 0 1 1 1 0 0
THIC   28   6 27.74 0 0 0 1 1 1 0 0
THIC   28   7 30.59 0 0 0 1 1 1 0 0
THIC   28   8 35.22 0 0 0 1 1 1 0 0
THIC   28   9 22.54 0 0 0 1 1 1 0 0
THIC   28   10 27.74 0 0 0 1 1 1 0 0
THIC   28   11 30.59 0 0 0 1 1 1 0 0
THIC   28   12 35.22 0 0 0 1 1 1 0 0
