VERS 161019 507 33785
MODE SEQ
NAME JP 2010-101979 Example 5 (Sigma 24.2mm F2.8 (dp2x))
NOTE 0 Prepared and converted by Bill Claff.
PFIL 0 0 0
LANG 0
UNIT MM X W X CM MR CPMM
FNUM 2.9129 0
ENVD 20 1 0
GFAC 0 0
RAIM 0 2 1 1 0 1 0 0 0
SDMA 0 1 0
FTYP 3 0 3 3 0 0 0
ROPD 2
HYPR 0
PICB 1
XFLN 0 0 0 0 0 0 0 0 0 0 0 0
YFLN 0 8.96 12.8 0 0 0 0 0 0 0 0 0 0
FWGN 1 1 1 1 1 1 1 1 1 1 1 1
VDXN 0 0 0 0 0 0 0 0 0 0 0 0
VDYN 0 0 0 0 0 0 0 0 0 0 0 0
VCXN 0 0 0 0 0 0 0 0 0 0 0 0
VCYN 0 0 0 0 0 0 0 0 0 0 0 0
VANN 0 0 0 0 0 0 0 0 0 0 0 0
WAVM 1 0.4861327 1
WAVM 2 0.5875618 1
WAVM 3 0.6562725 1
WAVM 4 0.550 1
WAVM 5 0.550 1
WAVM 6 0.550 1
WAVM 7 0.550 1
WAVM 8 0.550 1
WAVM 9 0.550 1
WAVM 10 0.550 1
WAVM 11 0.550 1
WAVM 12 0.550 1
WAVM 13 0.550 1
WAVM 14 0.550 1
WAVM 15 0.550 1
WAVM 16 0.550 1
WAVM 17 0.550 1
WAVM 18 0.550 1
WAVM 19 0.550 1
WAVM 20 0.550 1
WAVM 21 0.550 1
WAVM 22 0.550 1
WAVM 23 0.550 1
WAVM 24 0.550 1
PWAV 2
POLS 1 0 1 0 0 1 0
GSTD 0 100 100 100 100 100 100 0 1 1 0 0 1 1 1 1 1 1
NSCD 100 500 0 1.0E-3 5 1.0E-6 0 0 0 0 0 0 1000000 0 2
SURF 0
  TYPE STANDARD
  CURV 0.0 0 0 0 0 ""
  HIDE 0 0 0 0 0 0 0 0 0 0
  MIRR 2 0
  DISZ INFINITY
  DIAM 0 1 0 0 1 ""
  POPS 0 0 0 0 0 0 0 0 1 1 1 1 0 0 0 0
SURF 1
  TYPE STANDARD
  CURV 0.021383193237779 0 0 0 0
  HIDE 0 0 0 0 0 0 0 0 0 0
  MIRR 2 0
  DISZ  1
  GLAS  ___BLANK 1 0 1.71300 53.94 0 0 0 0 0 0
  DIAM  9.18 1 0 0 1 ""
  POPS 0 0 0 0 0 0 0 0 1 1 1 1 0 0 0 0
SURF 2
  TYPE STANDARD
  CURV 0.073437614746273 0 0 0 0
  HIDE 0 0 0 0 0 0 0 0 0 0
  MIRR 2 0
  DISZ  3.7677
  DIAM  7.53 1 0 0 1 ""
  POPS 0 0 0 0 0 0 0 0 1 1 1 1 0 0 0 0
SURF 3
  TYPE STANDARD
  CURV -0.0329541410173602 0 0 0 0
  HIDE 0 0 0 0 0 0 0 0 0 0
  MIRR 2 0
  DISZ  0.8
  GLAS  ___BLANK 1 0 1.60342 38.01 0 0 0 0 0 0
  DIAM  7.53 1 0 0 1 ""
  POPS 0 0 0 0 0 0 0 0 1 1 1 1 0 0 0 0
SURF 4
  TYPE STANDARD
  CURV 0.0329541410173602 0 0 0 0
  HIDE 0 0 0 0 0 0 0 0 0 0
  MIRR 2 0
  DISZ  0.9158
  DIAM  8 1 0 0 1 ""
  POPS 0 0 0 0 0 0 0 0 1 1 1 1 0 0 0 0
SURF 5
  TYPE STANDARD
  CURV 0.0064016388195378 0 0 0 0
  HIDE 0 0 0 0 0 0 0 0 0 0
  MIRR 2 0
  DISZ  2.2164
  GLAS  ___BLANK 1 0 1.83481 42.72 0 0 0 0 0 0
  DIAM  8 1 0 0 1 ""
  POPS 0 0 0 0 0 0 0 0 1 1 1 1 0 0 0 0
SURF 6
  TYPE STANDARD
  CURV -0.0196839544277087 0 0 0 0
  HIDE 0 0 0 0 0 0 0 0 0 0
  MIRR 2 0
  DISZ  0.7032
  DIAM  8 1 0 0 1 ""
  POPS 0 0 0 0 0 0 0 0 1 1 1 1 0 0 0 0
SURF 7
  TYPE STANDARD
  CURV 0.0436231656458846 0 0 0 0
  HIDE 0 0 0 0 0 0 0 0 0 0
  MIRR 2 0
  DISZ  3.3836
  GLAS  ___BLANK 1 0 1.88300 40.80 0 0 0 0 0 0
  DIAM  8 1 0 0 1 ""
  POPS 0 0 0 0 0 0 0 0 1 1 1 1 0 0 0 0
SURF 8
  TYPE STANDARD
  CURV -0.0185364714343707 0 0 0 0
  HIDE 0 0 0 0 0 0 0 0 0 0
  MIRR 2 0
  DISZ  5.3
  DIAM  8 1 0 0 1 ""
  POPS 0 0 0 0 0 0 0 0 1 1 1 1 0 0 0 0
SURF 9
  STOP
  TYPE STANDARD
  CURV 0 0 0 0 0
  HIDE 0 0 0 0 0 0 0 0 0 0
  MIRR 2 0
  DISZ  5.3072
  DIAM  5.3 1 0 0 1 ""
  POPS 0 0 0 0 0 0 0 0 1 1 1 1 0 0 0 0
SURF 10
  TYPE STANDARD
  CURV -0.0649726140431808 0 0 0 0
  HIDE 0 0 0 0 0 0 0 0 0 0
  MIRR 2 0
  DISZ  0.8
  GLAS  ___BLANK 1 0 1.72825 28.32 0 0 0 0 0 0
  DIAM  5.87 1 0 0 1 ""
  POPS 0 0 0 0 0 0 0 0 1 1 1 1 0 0 0 0
SURF 11
  TYPE STANDARD
  CURV 0.040040360683569 0 0 0 0
  HIDE 0 0 0 0 0 0 0 0 0 0
  MIRR 2 0
  DISZ  4.4049
  GLAS  ___BLANK 1 0 1.74180 49.23 0 0 0 0 0 0
  DIAM  6.7 1 0 0 1 ""
  POPS 0 0 0 0 0 0 0 0 1 1 1 1 0 0 0 0
SURF 12
  TYPE EVENASPH
  CURV -0.065870077858432 0 0 0 0
  HIDE 0 0 0 0 0 0 0 0 0 0
  MIRR 2 0
  PARM 1 0
  PARM 2 3.046922E-05
  PARM 3 1.288985E-07
  PARM 4 -8.073659E-10
  PARM 5 1.215549E-11
  PARM 6 0
  PARM 7 0
  PARM 8 0
  DISZ  9.3255
  CONI  0
  DIAM  6.7 1 0 0 1 ""
  POPS 0 0 0 0 0 0 0 0 1 1 1 1 0 0 0 0
SURF 13
  TYPE STANDARD
  CURV -0.00784504467752944 0 0 0 0
  HIDE 0 0 0 0 0 0 0 0 0 0
  MIRR 2 0
  DISZ  2.5658
  GLAS  ___BLANK 1 0 1.58763 61.09 0 0 0 0 0 0
  DIAM  9.67 1 0 0 1 ""
  POPS 0 0 0 0 0 0 0 0 1 1 1 1 0 0 0 0
SURF 14
  TYPE EVENASPH
  CURV -0.0321425586762409 0 0 0 0
  HIDE 0 0 0 0 0 0 0 0 0 0
  MIRR 2 0
  PARM 1 0
  PARM 2 9.111786E-06
  PARM 3 -6.004492E-09
  PARM 4 1.095870E-09
  PARM 5 -5.418634E-12
  PARM 6 0
  PARM 7 0
  PARM 8 0
  DISZ  22.635
  CONI  0
  DIAM  9.67 1 0 0 1 ""
  POPS 0 0 0 0 0 0 0 0 1 1 1 1 0 0 0 0
SURF 15
  TYPE STANDARD
  CURV 0.0 0 0 0 0 ""
  HIDE 0 0 0 0 0 0 0 0 0 0
  MIRR 2 0
  DISZ 0
  DIAM 12.8 1 0 0 1 ""
  POPS 0 0 0 0 0 0 0 0 1 1 1 1 0 0 0 0
TOL TOFF   0   0              0              0   0 0 0 0
MNUM 3 1
THIC   0   1 1.00E+10 0 0 0 1 1 1 0 0
THIC   0   2 937.08 0 0 0 1 1 1 0 0
THIC   0   3 436.61 0 0 0 1 1 1 0 0
THIC   12   1 9.3255 0 0 0 1 1 1 0 0
THIC   12   2 8.1995 0 0 0 1 1 1 0 0
THIC   12   3 6.9867 0 0 0 1 1 1 0 0
THIC   14   1 22.6350 0 0 0 1 1 1 0 0
THIC   14   2 23.7610 0 0 0 1 1 1 0 0
THIC   14   3 24.9738 0 0 0 1 1 1 0 0
