VERS 161019 507 33785
MODE SEQ
NAME CN 108535851 Example 1 (Venus Laowa 10-18mm f4.5-5.6 Zoom)
NOTE 0 Prepared and converted by Bill Claff.
PFIL 0 0 0
LANG 0
UNIT MM X W X CM MR CPMM
FLOA
ENVD 20 1 0
GFAC 0 0
RAIM 0 2 1 1 0 1 0 0 0
SDMA 0 1 0
FTYP 3 0 3 3 0 0 0
ROPD 2
HYPR 0
PICB 1
XFLN 0 0 0 0 0 0 0 0 0 0 0 0
YFLN 0 15.141 21.63 0 0 0 0 0 0 0 0 0 0
FWGN 1 1 1 1 1 1 1 1 1 1 1 1
VDXN 0 0 0 0 0 0 0 0 0 0 0 0
VDYN 0 0 0 0 0 0 0 0 0 0 0 0
VCXN 0 0 0 0 0 0 0 0 0 0 0 0
VCYN 0 0 0 0 0 0 0 0 0 0 0 0
VANN 0 0 0 0 0 0 0 0 0 0 0 0
WAVM 1 0.4861327 1
WAVM 2 0.5875618 1
WAVM 3 0.6562725 1
WAVM 4 0.550 1
WAVM 5 0.550 1
WAVM 6 0.550 1
WAVM 7 0.550 1
WAVM 8 0.550 1
WAVM 9 0.550 1
WAVM 10 0.550 1
WAVM 11 0.550 1
WAVM 12 0.550 1
WAVM 13 0.550 1
WAVM 14 0.550 1
WAVM 15 0.550 1
WAVM 16 0.550 1
WAVM 17 0.550 1
WAVM 18 0.550 1
WAVM 19 0.550 1
WAVM 20 0.550 1
WAVM 21 0.550 1
WAVM 22 0.550 1
WAVM 23 0.550 1
WAVM 24 0.550 1
PWAV 2
POLS 1 0 1 0 0 1 0
GSTD 0 100 100 100 100 100 100 0 1 1 0 0 1 1 1 1 1 1
NSCD 100 500 0 1.0E-3 5 1.0E-6 0 0 0 0 0 0 1000000 0 2
SURF 0
  TYPE STANDARD
  CURV 0.0 0 0 0 0 ""
  HIDE 0 0 0 0 0 0 0 0 0 0
  MIRR 2 0
  DISZ INFINITY
  DIAM 0 1 0 0 1 ""
  POPS 0 0 0 0 0 0 0 0 1 1 1 1 0 0 0 0
SURF 1
  TYPE STANDARD
  CURV 0.0296450011116875 0 0 0 0
  HIDE 0 0 0 0 0 0 0 0 0 0
  MIRR 2 0
  DISZ  2
  GLAS  ___BLANK 1 0 1.91082 35.25 0 0 0 0 0 0
  DIAM  24.685 1 0 0 1 ""
  POPS 0 0 0 0 0 0 0 0 1 1 1 1 0 0 0 0
SURF 2
  TYPE STANDARD
  CURV 0.0441783923483024 0 0 0 0
  HIDE 0 0 0 0 0 0 0 0 0 0
  MIRR 2 0
  DISZ  4.4476
  DIAM  20.045 1 0 0 1 ""
  POPS 0 0 0 0 0 0 0 0 1 1 1 1 0 0 0 0
SURF 3
  TYPE STANDARD
  CURV 0.0334105116151644 0 0 0 0
  HIDE 0 0 0 0 0 0 0 0 0 0
  MIRR 2 0
  DISZ  1.8
  GLAS  ___BLANK 1 0 1.83481 42.72 0 0 0 0 0 0
  DIAM  20.545 1 0 0 1 ""
  POPS 0 0 0 0 0 0 0 0 1 1 1 1 0 0 0 0
SURF 4
  TYPE STANDARD
  CURV 0.0563078915510009 0 0 0 0
  HIDE 0 0 0 0 0 0 0 0 0 0
  MIRR 2 0
  DISZ  3.5252
  DIAM  15.59 1 0 0 1 ""
  POPS 0 0 0 0 0 0 0 0 1 1 1 1 0 0 0 0
SURF 5
  TYPE EVENASPH
  CURV 0.0244324345455079 0 0 0 0
  HIDE 0 0 0 0 0 0 0 0 0 0
  MIRR 2 0
  PARM 1 0
  PARM 2 1.12593E-04
  PARM 3 -5.34499E-07
  PARM 4 1.25066E-09
  PARM 5 4.81464E-14
  PARM 6 -3.23476E-15
  PARM 7 0
  PARM 8 0
  DISZ  2
  CONI  0.0000
  GLAS  ___BLANK 1 0 1.80781 40.96 0 0 0 0 0 0
  DIAM  16.68 1 0 0 1 ""
  POPS 0 0 0 0 0 0 0 0 1 1 1 1 0 0 0 0
SURF 6
  TYPE EVENASPH
  CURV 0.0675420111309234 0 0 0 0
  HIDE 0 0 0 0 0 0 0 0 0 0
  MIRR 2 0
  PARM 1 0
  PARM 2 7.44656E-05
  PARM 3 -4.56847E-08
  PARM 4 -9.51630E-09
  PARM 5 6.27332E-11
  PARM 6 -1.63264E-13
  PARM 7 0
  PARM 8 0
  DISZ  8.2179
  CONI  0.0000
  DIAM  12.965 1 0 0 1 ""
  POPS 0 0 0 0 0 0 0 0 1 1 1 1 0 0 0 0
SURF 7
  TYPE STANDARD
  CURV -0.0180052359226063 0 0 0 0
  HIDE 0 0 0 0 0 0 0 0 0 0
  MIRR 2 0
  DISZ  4.1
  GLAS  ___BLANK 1 0 1.83481 42.72 0 0 0 0 0 0
  DIAM  12.965 1 0 0 1 ""
  POPS 0 0 0 0 0 0 0 0 1 1 1 1 0 0 0 0
SURF 8
  TYPE STANDARD
  CURV 0.0593144436601757 0 0 0 0
  HIDE 0 0 0 0 0 0 0 0 0 0
  MIRR 2 0
  DISZ  2.2379
  DIAM  10.88 1 0 0 1 ""
  POPS 0 0 0 0 0 0 0 0 1 1 1 1 0 0 0 0
SURF 9
  TYPE STANDARD
  CURV 0.0443718717830393 0 0 0 0
  HIDE 0 0 0 0 0 0 0 0 0 0
  MIRR 2 0
  DISZ  5.8
  GLAS  ___BLANK 1 0 1.76182 26.61 0 0 0 0 0 0
  DIAM  11.525 1 0 0 1 ""
  POPS 0 0 0 0 0 0 0 0 1 1 1 1 0 0 0 0
SURF 10
  TYPE STANDARD
  CURV -0.0158625918840635 0 0 0 0
  HIDE 0 0 0 0 0 0 0 0 0 0
  MIRR 2 0
  DISZ  12.1801
  DIAM  11.525 1 0 0 1 ""
  POPS 0 0 0 0 0 0 0 0 1 1 1 1 0 0 0 0
SURF 11
  TYPE STANDARD
  CURV 0.0638430991994075 0 0 0 0
  HIDE 0 0 0 0 0 0 0 0 0 0
  MIRR 2 0
  DISZ  1
  GLAS  ___BLANK 1 0 1.92286 20.88 0 0 0 0 0 0
  DIAM  7.58 1 0 0 1 ""
  POPS 0 0 0 0 0 0 0 0 1 1 1 1 0 0 0 0
SURF 12
  TYPE STANDARD
  CURV 0.110958235320225 0 0 0 0
  HIDE 0 0 0 0 0 0 0 0 0 0
  MIRR 2 0
  DISZ  6
  GLAS  ___BLANK 1 0 1.69895 30.05 0 0 0 0 0 0
  DIAM  6.775 1 0 0 1 ""
  POPS 0 0 0 0 0 0 0 0 1 1 1 1 0 0 0 0
SURF 13
  TYPE STANDARD
  CURV 0.0159936792979415 0 0 0 0
  HIDE 0 0 0 0 0 0 0 0 0 0
  MIRR 2 0
  DISZ  5.9744
  DIAM  6.775 1 0 0 1 ""
  POPS 0 0 0 0 0 0 0 0 1 1 1 1 0 0 0 0
SURF 14
  STOP
  TYPE STANDARD
  CURV 0 0 0 0 0
  HIDE 0 0 0 0 0 0 0 0 0 0
  MIRR 2 0
  DISZ  1
  DIAM  3.8625 1 0 0 1 ""
  POPS 0 0 0 0 0 0 0 0 1 1 1 1 0 0 0 0
SURF 15
  TYPE STANDARD
  CURV 0.0655600136364828 0 0 0 0
  HIDE 0 0 0 0 0 0 0 0 0 0
  MIRR 2 0
  DISZ  2.5
  GLAS  ___BLANK 1 0 1.49700 81.61 0 0 0 0 0 0
  DIAM  4.775 1 0 0 1 ""
  POPS 0 0 0 0 0 0 0 0 1 1 1 1 0 0 0 0
SURF 16
  TYPE STANDARD
  CURV -0.0655600136364828 0 0 0 0
  HIDE 0 0 0 0 0 0 0 0 0 0
  MIRR 2 0
  DISZ  0.4
  DIAM  4.775 1 0 0 1 ""
  POPS 0 0 0 0 0 0 0 0 1 1 1 1 0 0 0 0
SURF 17
  TYPE STANDARD
  CURV -0.0685062888773189 0 0 0 0
  HIDE 0 0 0 0 0 0 0 0 0 0
  MIRR 2 0
  DISZ  1
  GLAS  ___BLANK 1 0 1.91082 35.25 0 0 0 0 0 0
  DIAM  4.775 1 0 0 1 ""
  POPS 0 0 0 0 0 0 0 0 1 1 1 1 0 0 0 0
SURF 18
  TYPE STANDARD
  CURV 0.0471922944421635 0 0 0 0
  HIDE 0 0 0 0 0 0 0 0 0 0
  MIRR 2 0
  DISZ  0
  DIAM  5.275 1 0 0 1 ""
  POPS 0 0 0 0 0 0 0 0 1 1 1 1 0 0 0 0
SURF 19
  TYPE STANDARD
  CURV 0.0471922944421635 0 0 0 0
  HIDE 0 0 0 0 0 0 0 0 0 0
  MIRR 2 0
  DISZ  2.2
  GLAS  ___BLANK 1 0 1.84666 23.78 0 0 0 0 0 0
  DIAM  5.275 1 0 0 1 ""
  POPS 0 0 0 0 0 0 0 0 1 1 1 1 0 0 0 0
SURF 20
  TYPE STANDARD
  CURV -0.0301553604168677 0 0 0 0
  HIDE 0 0 0 0 0 0 0 0 0 0
  MIRR 2 0
  DISZ  0.15
  DIAM  5.275 1 0 0 1 ""
  POPS 0 0 0 0 0 0 0 0 1 1 1 1 0 0 0 0
SURF 21
  TYPE STANDARD
  CURV 0.0636245641717354 0 0 0 0
  HIDE 0 0 0 0 0 0 0 0 0 0
  MIRR 2 0
  DISZ  1
  GLAS  ___BLANK 1 0 1.83481 42.72 0 0 0 0 0 0
  DIAM  7.12 1 0 0 1 ""
  POPS 0 0 0 0 0 0 0 0 1 1 1 1 0 0 0 0
SURF 22
  TYPE STANDARD
  CURV 0.119653006281783 0 0 0 0
  HIDE 0 0 0 0 0 0 0 0 0 0
  MIRR 2 0
  DISZ  5.6
  GLAS  ___BLANK 1 0 1.49700 81.61 0 0 0 0 0 0
  DIAM  6.395 1 0 0 1 ""
  POPS 0 0 0 0 0 0 0 0 1 1 1 1 0 0 0 0
SURF 23
  TYPE STANDARD
  CURV -0.0600712444959722 0 0 0 0
  HIDE 0 0 0 0 0 0 0 0 0 0
  MIRR 2 0
  DISZ  0.7122
  DIAM  6.395 1 0 0 1 ""
  POPS 0 0 0 0 0 0 0 0 1 1 1 1 0 0 0 0
SURF 24
  TYPE STANDARD
  CURV -0.041225213340479 0 0 0 0
  HIDE 0 0 0 0 0 0 0 0 0 0
  MIRR 2 0
  DISZ  1
  GLAS  ___BLANK 1 0 1.91082 35.25 0 0 0 0 0 0
  DIAM  6.205 1 0 0 1 ""
  POPS 0 0 0 0 0 0 0 0 1 1 1 1 0 0 0 0
SURF 25
  TYPE STANDARD
  CURV 0.0785453402976868 0 0 0 0
  HIDE 0 0 0 0 0 0 0 0 0 0
  MIRR 2 0
  DISZ  4.9
  GLAS  ___BLANK 1 0 1.58313 59.46 0 0 0 0 0 0
  DIAM  8.15 1 0 0 1 ""
  POPS 0 0 0 0 0 0 0 0 1 1 1 1 0 0 0 0
SURF 26
  TYPE EVENASPH
  CURV -0.0183436761093797 0 0 0 0
  HIDE 0 0 0 0 0 0 0 0 0 0
  MIRR 2 0
  PARM 1 0
  PARM 2 1.04231E-04
  PARM 3 -5.33107E-08
  PARM 4 3.70988E-09
  PARM 5 -8.96419E-11
  PARM 6 -1.80041E-14
  PARM 7 0
  PARM 8 0
  DISZ  16
  CONI  0.0000
  DIAM  8.15 1 0 0 1 ""
  POPS 0 0 0 0 0 0 0 0 1 1 1 1 0 0 0 0
SURF 27
  TYPE STANDARD
  CURV 0 0 0 0 0
  HIDE 0 0 0 0 0 0 0 0 0 0
  MIRR 2 0
  DISZ  4
  GLAS  ___BLANK 1 0 1.51680 64.20 0 0 0 0 0 0
  DIAM  23.71 1 0 0 1 ""
  POPS 0 0 0 0 0 0 0 0 1 1 1 1 0 0 0 0
SURF 28
  TYPE STANDARD
  CURV 0 0 0 0 0
  HIDE 0 0 0 0 0 0 0 0 0 0
  MIRR 2 0
  DISZ  1
  DIAM  23.71 1 0 0 1 ""
  POPS 0 0 0 0 0 0 0 0 1 1 1 1 0 0 0 0
SURF 29
  TYPE STANDARD
  CURV 0.0 0 0 0 0 ""
  HIDE 0 0 0 0 0 0 0 0 0 0
  MIRR 2 0
  DISZ 0
  DIAM 21.63 1 0 0 1 ""
  POPS 0 0 0 0 0 0 0 0 1 1 1 1 0 0 0 0
TOL TOFF   0   0              0              0   0 0 0 0
MNUM 6 1
SDIA   14   1 3.8625 0 0 0 1 1 1 0 0
SDIA   14   2 4.0525 0 0 0 1 1 1 0 0
SDIA   14   3 4.243 0 0 0 1 1 1 0 0
SDIA   14   4 3.8625 0 0 0 1 1 1 0 0
SDIA   14   5 4.0525 0 0 0 1 1 1 0 0
SDIA   14   6 4.243 0 0 0 1 1 1 0 0
THIC   0   1 1.00E+10 0 0 0 1 1 1 0 0
THIC   0   2 1.00E+10 0 0 0 1 1 1 0 0
THIC   0   3 1.00E+10 0 0 0 1 1 1 0 0
THIC   0   4 145.25 0 0 0 1 1 1 0 0
THIC   0   5 147.20 0 0 0 1 1 1 0 0
THIC   0   6 146.04 0 0 0 1 1 1 0 0
THIC   10   1 12.1801 0 0 0 1 1 1 0 0
THIC   10   2 5.3205 0 0 0 1 1 1 0 0
THIC   10   3 1.5 0 0 0 1 1 1 0 0
THIC   10   4 13.136 0 0 0 1 1 1 0 0
THIC   10   5 6.2503 0 0 0 1 1 1 0 0
THIC   10   6 2.4453 0 0 0 1 1 1 0 0
THIC   13   1 5.9744 0 0 0 1 1 1 0 0
THIC   13   2 4.6647 0 0 0 1 1 1 0 0
THIC   13   3 3.8391 0 0 0 1 1 1 0 0
THIC   13   4 5.0185 0 0 0 1 1 1 0 0
THIC   13   5 3.7349 0 0 0 1 1 1 0 0
THIC   13   6 2.8938 0 0 0 1 1 1 0 0
THIC   26   1 16.0000 0 0 0 1 1 1 0 0
THIC   26   2 22.2251 0 0 0 1 1 1 0 0
THIC   26   3 28.0319 0 0 0 1 1 1 0 0
THIC   26   4 16.0152 0 0 0 1 1 1 0 0
THIC   26   5 22.2522 0 0 0 1 1 1 0 0
THIC   26   6 28.075 0 0 0 1 1 1 0 0
