VERS 161019 507 33785
MODE SEQ
NAME US 2014/0354857 Example 7 (Zeiss Vario-Sonnar T 8.8-73.3mm F2.8 (Sony DSC-RX10M1-2))
NOTE 0 Prepared and converted by Bill Claff.
PFIL 0 0 0
LANG 0
UNIT MM X W X CM MR CPMM
FLOA
ENVD 20 1 0
GFAC 0 0
RAIM 0 2 1 1 0 1 0 0 0
SDMA 0 1 0
FTYP 3 0 3 3 0 0 0
ROPD 2
HYPR 0
PICB 1
XFLN 0 0 0 0 0 0 0 0 0 0 0 0
YFLN 0 5.25 7.5 0 0 0 0 0 0 0 0 0 0
FWGN 1 1 1 1 1 1 1 1 1 1 1 1
VDXN 0 0 0 0 0 0 0 0 0 0 0 0
VDYN 0 0 0 0 0 0 0 0 0 0 0 0
VCXN 0 0 0 0 0 0 0 0 0 0 0 0
VCYN 0 0 0 0 0 0 0 0 0 0 0 0
VANN 0 0 0 0 0 0 0 0 0 0 0 0
WAVM 1 0.4861327 1
WAVM 2 0.5875618 1
WAVM 3 0.6562725 1
WAVM 4 0.550 1
WAVM 5 0.550 1
WAVM 6 0.550 1
WAVM 7 0.550 1
WAVM 8 0.550 1
WAVM 9 0.550 1
WAVM 10 0.550 1
WAVM 11 0.550 1
WAVM 12 0.550 1
WAVM 13 0.550 1
WAVM 14 0.550 1
WAVM 15 0.550 1
WAVM 16 0.550 1
WAVM 17 0.550 1
WAVM 18 0.550 1
WAVM 19 0.550 1
WAVM 20 0.550 1
WAVM 21 0.550 1
WAVM 22 0.550 1
WAVM 23 0.550 1
WAVM 24 0.550 1
PWAV 2
POLS 1 0 1 0 0 1 0
GSTD 0 100 100 100 100 100 100 0 1 1 0 0 1 1 1 1 1 1
NSCD 100 500 0 1.0E-3 5 1.0E-6 0 0 0 0 0 0 1000000 0 2
SURF 0
  TYPE STANDARD
  CURV 0.0 0 0 0 0 ""
  HIDE 0 0 0 0 0 0 0 0 0 0
  MIRR 2 0
  DISZ INFINITY
  DIAM 0 1 0 0 1 ""
  POPS 0 0 0 0 0 0 0 0 1 1 1 1 0 0 0 0
SURF 1
  TYPE STANDARD
  CURV 0.015847107110597 0 0 0 0
  HIDE 0 0 0 0 0 0 0 0 0 0
  MIRR 2 0
  DISZ  1.3
  GLAS  ___BLANK 1 0 1.847 23.784 0 0 0 0 0 0
  DIAM  23.96 1 0 0 1 ""
  POPS 0 0 0 0 0 0 0 0 1 1 1 1 0 0 0 0
SURF 2
  TYPE STANDARD
  CURV 0.0215104648411452 0 0 0 0
  HIDE 0 0 0 0 0 0 0 0 0 0
  MIRR 2 0
  DISZ  6.4
  GLAS  ___BLANK 1 0 1.497 81.607 0 0 0 0 0 0
  DIAM  21.08 1 0 0 1 ""
  POPS 0 0 0 0 0 0 0 0 1 1 1 1 0 0 0 0
SURF 3
  TYPE STANDARD
  CURV 0.00175438596491228 0 0 0 0
  HIDE 0 0 0 0 0 0 0 0 0 0
  MIRR 2 0
  DISZ  0.2
  DIAM  22.59 1 0 0 1 ""
  POPS 0 0 0 0 0 0 0 0 1 1 1 1 0 0 0 0
SURF 4
  TYPE STANDARD
  CURV 0.0201126307320998 0 0 0 0
  HIDE 0 0 0 0 0 0 0 0 0 0
  MIRR 2 0
  DISZ  4.5
  GLAS  ___BLANK 1 0 1.593 67.001 0 0 0 0 0 0
  DIAM  20.775 1 0 0 1 ""
  POPS 0 0 0 0 0 0 0 0 1 1 1 1 0 0 0 0
SURF 5
  TYPE STANDARD
  CURV 0.00668958966057022 0 0 0 0
  HIDE 0 0 0 0 0 0 0 0 0 0
  MIRR 2 0
  DISZ  1.92
  DIAM  17.98 1 0 0 1 ""
  POPS 0 0 0 0 0 0 0 0 1 1 1 1 0 0 0 0
SURF 6
  TYPE EVENASPH
  CURV 0.00333333333333333 0 0 0 0
  HIDE 0 0 0 0 0 0 0 0 0 0
  MIRR 2 0
  PARM 1 0
  PARM 2 -3.93629E-05
  PARM 3 3.95479E-07
  PARM 4 -1.09912E-09
  PARM 5 0
  PARM 6 0
  PARM 7 0
  PARM 8 0
  DISZ  0.8
  CONI  0
  GLAS  ___BLANK 1 0 1.803 45.57 0 0 0 0 0 0
  DIAM  13.035 1 0 0 1 ""
  POPS 0 0 0 0 0 0 0 0 1 1 1 1 0 0 0 0
SURF 7
  TYPE EVENASPH
  CURV 0.0960153624579933 0 0 0 0
  HIDE 0 0 0 0 0 0 0 0 0 0
  MIRR 2 0
  PARM 1 0
  PARM 2 -7.86178E-05
  PARM 3 -1.27061E-07
  PARM 4 -1.97636E-09
  PARM 5 5.44302E-11
  PARM 6 0
  PARM 7 0
  PARM 8 0
  DISZ  5.63
  CONI  0
  DIAM  8.57 1 0 0 1 ""
  POPS 0 0 0 0 0 0 0 0 1 1 1 1 0 0 0 0
SURF 8
  TYPE STANDARD
  CURV -0.0407581006725087 0 0 0 0
  HIDE 0 0 0 0 0 0 0 0 0 0
  MIRR 2 0
  DISZ  0.85
  GLAS  ___BLANK 1 0 1.729 54.673 0 0 0 0 0 0
  DIAM  8.57 1 0 0 1 ""
  POPS 0 0 0 0 0 0 0 0 1 1 1 1 0 0 0 0
SURF 9
  TYPE STANDARD
  CURV 0.0252525252525253 0 0 0 0
  HIDE 0 0 0 0 0 0 0 0 0 0
  MIRR 2 0
  DISZ  4
  GLAS  ___BLANK 1 0 2.001 25.458 0 0 0 0 0 0
  DIAM  8.63 1 0 0 1 ""
  POPS 0 0 0 0 0 0 0 0 1 1 1 1 0 0 0 0
SURF 10
  TYPE STANDARD
  CURV -0.0410576449334866 0 0 0 0
  HIDE 0 0 0 0 0 0 0 0 0 0
  MIRR 2 0
  DISZ  1.52
  DIAM  8.63 1 0 0 1 ""
  POPS 0 0 0 0 0 0 0 0 1 1 1 1 0 0 0 0
SURF 11
  TYPE EVENASPH
  CURV -0.0620770997578993 0 0 0 0
  HIDE 0 0 0 0 0 0 0 0 0 0
  MIRR 2 0
  PARM 1 0
  PARM 2 4.69636E-05
  PARM 3 -1.01321E-06
  PARM 4 9.68569E-09
  PARM 5 0
  PARM 6 0
  PARM 7 0
  PARM 8 0
  DISZ  1
  CONI  0
  GLAS  ___BLANK 1 0 1.834 37.285 0 0 0 0 0 0
  DIAM  7.76 1 0 0 1 ""
  POPS 0 0 0 0 0 0 0 0 1 1 1 1 0 0 0 0
SURF 12
  TYPE EVENASPH
  CURV -0.0285420710126727 0 0 0 0
  HIDE 0 0 0 0 0 0 0 0 0 0
  MIRR 2 0
  PARM 1 0
  PARM 2 1.71182E-05
  PARM 3 -8.70926E-07
  PARM 4 7.13914E-09
  PARM 5 0
  PARM 6 0
  PARM 7 0
  PARM 8 0
  DISZ  25.033
  CONI  0
  DIAM  8.23 1 0 0 1 ""
  POPS 0 0 0 0 0 0 0 0 1 1 1 1 0 0 0 0
SURF 13
  STOP
  TYPE STANDARD
  CURV 0 0 0 0 0
  HIDE 0 0 0 0 0 0 0 0 0 0
  MIRR 2 0
  DISZ  1
  DIAM  4.76 1 0 0 1 ""
  POPS 0 0 0 0 0 0 0 0 1 1 1 1 0 0 0 0
SURF 14
  TYPE EVENASPH
  CURV 0.053714347102111 0 0 0 0
  HIDE 0 0 0 0 0 0 0 0 0 0
  MIRR 2 0
  PARM 1 0
  PARM 2 -4.28289E-05
  PARM 3 -6.05947E-08
  PARM 4 -6.34692E-10
  PARM 5 -3.14342E-11
  PARM 6 0
  PARM 7 0
  PARM 8 0
  DISZ  6.2
  CONI  0
  GLAS  ___BLANK 1 0 1.592 67.138 0 0 0 0 0 0
  DIAM  9.94 1 0 0 1 ""
  POPS 0 0 0 0 0 0 0 0 1 1 1 1 0 0 0 0
SURF 15
  TYPE EVENASPH
  CURV -0.0307314074984634 0 0 0 0
  HIDE 0 0 0 0 0 0 0 0 0 0
  MIRR 2 0
  PARM 1 0
  PARM 2 -1.39722E-05
  PARM 3 1.34774E-07
  PARM 4 -4.09781E-09
  PARM 5 -5.61077E-12
  PARM 6 0
  PARM 7 0
  PARM 8 0
  DISZ  0.4
  CONI  0
  DIAM  9.94 1 0 0 1 ""
  POPS 0 0 0 0 0 0 0 0 1 1 1 1 0 0 0 0
SURF 16
  TYPE STANDARD
  CURV 0.0266042353942748 0 0 0 0
  HIDE 0 0 0 0 0 0 0 0 0 0
  MIRR 2 0
  DISZ  5.3
  GLAS  ___BLANK 1 0 1.487 70.44 0 0 0 0 0 0
  DIAM  8.84 1 0 0 1 ""
  POPS 0 0 0 0 0 0 0 0 1 1 1 1 0 0 0 0
SURF 17
  TYPE STANDARD
  CURV -0.0340657468915006 0 0 0 0
  HIDE 0 0 0 0 0 0 0 0 0 0
  MIRR 2 0
  DISZ  1.2
  GLAS  ___BLANK 1 0 1.806 33.269 0 0 0 0 0 0
  DIAM  8.84 1 0 0 1 ""
  POPS 0 0 0 0 0 0 0 0 1 1 1 1 0 0 0 0
SURF 18
  TYPE STANDARD
  CURV 0.0555401277422938 0 0 0 0
  HIDE 0 0 0 0 0 0 0 0 0 0
  MIRR 2 0
  DISZ  2.86
  DIAM  8.05 1 0 0 1 ""
  POPS 0 0 0 0 0 0 0 0 1 1 1 1 0 0 0 0
SURF 19
  TYPE EVENASPH
  CURV 0.0560443871546265 0 0 0 0
  HIDE 0 0 0 0 0 0 0 0 0 0
  MIRR 2 0
  PARM 1 0
  PARM 2 -6.10744E-05
  PARM 3 6.49748E-07
  PARM 4 -1.21690E-08
  PARM 5 5.57526E-11
  PARM 6 0
  PARM 7 0
  PARM 8 0
  DISZ  5.5
  CONI  0
  GLAS  ___BLANK 1 0 1.589 61.177 0 0 0 0 0 0
  DIAM  9.445 1 0 0 1 ""
  POPS 0 0 0 0 0 0 0 0 1 1 1 1 0 0 0 0
SURF 20
  TYPE EVENASPH
  CURV -0.0433050407067383 0 0 0 0
  HIDE 0 0 0 0 0 0 0 0 0 0
  MIRR 2 0
  PARM 1 0
  PARM 2 6.06683E-06
  PARM 3 6.56512E-07
  PARM 4 -1.16512E-08
  PARM 5 5.19636E-11
  PARM 6 0
  PARM 7 0
  PARM 8 0
  DISZ  2.974
  CONI  0
  DIAM  9.445 1 0 0 1 ""
  POPS 0 0 0 0 0 0 0 0 1 1 1 1 0 0 0 0
SURF 21
  TYPE EVENASPH
  CURV -0.0114942528735632 0 0 0 0
  HIDE 0 0 0 0 0 0 0 0 0 0
  MIRR 2 0
  PARM 1 0
  PARM 2 7.86577E-05
  PARM 3 -7.12349E-07
  PARM 4 1.05051E-08
  PARM 5 -6.55397E-11
  PARM 6 0
  PARM 7 0
  PARM 8 0
  DISZ  0.82
  CONI  0
  GLAS  ___BLANK 1 0 1.768 49.241 0 0 0 0 0 0
  DIAM  8.285 1 0 0 1 ""
  POPS 0 0 0 0 0 0 0 0 1 1 1 1 0 0 0 0
SURF 22
  TYPE EVENASPH
  CURV 0.0383715129887571 0 0 0 0
  HIDE 0 0 0 0 0 0 0 0 0 0
  MIRR 2 0
  PARM 1 0
  PARM 2 9.18156E-05
  PARM 3 -1.06249E-06
  PARM 4 2.03069E-08
  PARM 5 -1.45685E-10
  PARM 6 0
  PARM 7 0
  PARM 8 0
  DISZ  6.789
  CONI  0
  DIAM  7.96 1 0 0 1 ""
  POPS 0 0 0 0 0 0 0 0 1 1 1 1 0 0 0 0
SURF 23
  TYPE EVENASPH
  CURV 0.0397914925788866 0 0 0 0
  HIDE 0 0 0 0 0 0 0 0 0 0
  MIRR 2 0
  PARM 1 0
  PARM 2 4.00117E-06
  PARM 3 -2.08628E-07
  PARM 4 1.18572E-09
  PARM 5 -3.42647E-12
  PARM 6 0
  PARM 7 0
  PARM 8 0
  DISZ  7
  CONI  0
  GLAS  ___BLANK 1 0 1.592 67.022 0 0 0 0 0 0
  DIAM  12.41 1 0 0 1 ""
  POPS 0 0 0 0 0 0 0 0 1 1 1 1 0 0 0 0
SURF 24
  TYPE EVENASPH
  CURV -0.0625 0 0 0 0
  HIDE 0 0 0 0 0 0 0 0 0 0
  MIRR 2 0
  PARM 1 0
  PARM 2 1.38672E-04
  PARM 3 -4.09166E-07
  PARM 4 1.49433E-09
  PARM 5 -3.22392E-14
  PARM 6 0
  PARM 7 0
  PARM 8 0
  DISZ  0.8
  CONI  0
  DIAM  12.41 1 0 0 1 ""
  POPS 0 0 0 0 0 0 0 0 1 1 1 1 0 0 0 0
SURF 25
  TYPE EVENASPH
  CURV -0.00971911750413063 0 0 0 0
  HIDE 0 0 0 0 0 0 0 0 0 0
  MIRR 2 0
  PARM 1 0
  PARM 2 -7.74228E-05
  PARM 3 1.48954E-06
  PARM 4 -1.12176E-08
  PARM 5 4.31348E-11
  PARM 6 0
  PARM 7 0
  PARM 8 0
  DISZ  1.5
  CONI  0
  GLAS  ___BLANK 1 0 1.619 63.533 0 0 0 0 0 0
  DIAM  11.095 1 0 0 1 ""
  POPS 0 0 0 0 0 0 0 0 1 1 1 1 0 0 0 0
SURF 26
  TYPE STANDARD
  CURV 0.0272108843537415 0 0 0 0
  HIDE 0 0 0 0 0 0 0 0 0 0
  MIRR 2 0
  DISZ  2.63
  DIAM  8.275 1 0 0 1 ""
  POPS 0 0 0 0 0 0 0 0 1 1 1 1 0 0 0 0
SURF 27
  TYPE STANDARD
  CURV 0 0 0 0 0
  HIDE 0 0 0 0 0 0 0 0 0 0
  MIRR 2 0
  DISZ  0.3
  GLAS  ___BLANK 1 0 1.517 64.166 0 0 0 0 0 0
  DIAM  8.905 1 0 0 1 ""
  POPS 0 0 0 0 0 0 0 0 1 1 1 1 0 0 0 0
SURF 28
  TYPE STANDARD
  CURV 0 0 0 0 0
  HIDE 0 0 0 0 0 0 0 0 0 0
  MIRR 2 0
  DISZ  1.95
  DIAM  8.905 1 0 0 1 ""
  POPS 0 0 0 0 0 0 0 0 1 1 1 1 0 0 0 0
SURF 29
  TYPE STANDARD
  CURV 0 0 0 0 0
  HIDE 0 0 0 0 0 0 0 0 0 0
  MIRR 2 0
  DISZ  0.5
  GLAS  ___BLANK 1 0 1.517 64.166 0 0 0 0 0 0
  DIAM  8.275 1 0 0 1 ""
  POPS 0 0 0 0 0 0 0 0 1 1 1 1 0 0 0 0
SURF 30
  TYPE STANDARD
  CURV 0 0 0 0 0
  HIDE 0 0 0 0 0 0 0 0 0 0
  MIRR 2 0
  DISZ  1
  DIAM  8.275 1 0 0 1 ""
  POPS 0 0 0 0 0 0 0 0 1 1 1 1 0 0 0 0
SURF 31
  TYPE STANDARD
  CURV 0.0 0 0 0 0 ""
  HIDE 0 0 0 0 0 0 0 0 0 0
  MIRR 2 0
  DISZ 0
  DIAM 7.5 1 0 0 1 ""
  POPS 0 0 0 0 0 0 0 0 1 1 1 1 0 0 0 0
TOL TOFF   0   0              0              0   0 0 0 0
MNUM 3 1
SDIA   13   1 4.76 0 0 0 1 1 1 0 0
SDIA   13   2 6.37 0 0 0 1 1 1 0 0
SDIA   13   3 7.737 0 0 0 1 1 1 0 0
THIC   5   1 1.920 0 0 0 1 1 1 0 0
THIC   5   2 18.225 0 0 0 1 1 1 0 0
THIC   5   3 39.492 0 0 0 1 1 1 0 0
THIC   12   1 25.033 0 0 0 1 1 1 0 0
THIC   12   2 9.558 0 0 0 1 1 1 0 0
THIC   12   3 4.784 0 0 0 1 1 1 0 0
THIC   20   1 2.974 0 0 0 1 1 1 0 0
THIC   20   2 6.090 0 0 0 1 1 1 0 0
THIC   20   3 4.759 0 0 0 1 1 1 0 0
THIC   22   1 6.789 0 0 0 1 1 1 0 0
THIC   22   2 17.332 0 0 0 1 1 1 0 0
THIC   22   3 29.926 0 0 0 1 1 1 0 0
THIC   31   1 15.000 0 0 0 1 1 1 0 0
THIC   31   2 15.978 0 0 0 1 1 1 0 0
THIC   31   3 15.000 0 0 0 1 1 1 0 0
