VERS 161019 507 33785
MODE SEQ
NAME WO 2019/188070 Example 3 (Zeiss Vario-Sonnar T 9.0-72mm F2.8-4.5 (Sony DSC-RX100M6-7))
NOTE 0 Prepared and converted by Bill Claff.
PFIL 0 0 0
LANG 0
UNIT MM X W X CM MR CPMM
FLOA
ENVD 20 1 0
GFAC 0 0
RAIM 0 2 1 1 0 1 0 0 0
SDMA 0 1 0
FTYP 3 0 3 3 0 0 0
ROPD 2
HYPR 0
PICB 1
XFLN 0 0 0 0 0 0 0 0 0 0 0 0
YFLN 0 5.04 7.2 0 0 0 0 0 0 0 0 0 0
FWGN 1 1 1 1 1 1 1 1 1 1 1 1
VDXN 0 0 0 0 0 0 0 0 0 0 0 0
VDYN 0 0 0 0 0 0 0 0 0 0 0 0
VCXN 0 0 0 0 0 0 0 0 0 0 0 0
VCYN 0 0 0 0 0 0 0 0 0 0 0 0
VANN 0 0 0 0 0 0 0 0 0 0 0 0
WAVM 1 0.4861327 1
WAVM 2 0.5875618 1
WAVM 3 0.6562725 1
WAVM 4 0.550 1
WAVM 5 0.550 1
WAVM 6 0.550 1
WAVM 7 0.550 1
WAVM 8 0.550 1
WAVM 9 0.550 1
WAVM 10 0.550 1
WAVM 11 0.550 1
WAVM 12 0.550 1
WAVM 13 0.550 1
WAVM 14 0.550 1
WAVM 15 0.550 1
WAVM 16 0.550 1
WAVM 17 0.550 1
WAVM 18 0.550 1
WAVM 19 0.550 1
WAVM 20 0.550 1
WAVM 21 0.550 1
WAVM 22 0.550 1
WAVM 23 0.550 1
WAVM 24 0.550 1
PWAV 2
POLS 1 0 1 0 0 1 0
GSTD 0 100 100 100 100 100 100 0 1 1 0 0 1 1 1 1 1 1
NSCD 100 500 0 1.0E-3 5 1.0E-6 0 0 0 0 0 0 1000000 0 2
SURF 0
  TYPE STANDARD
  CURV 0.0 0 0 0 0 ""
  HIDE 0 0 0 0 0 0 0 0 0 0
  MIRR 2 0
  DISZ INFINITY
  DIAM 0 1 0 0 1 ""
  POPS 0 0 0 0 0 0 0 0 1 1 1 1 0 0 0 0
SURF 1
  TYPE STANDARD
  CURV 0.00942658107331052 0 0 0 0
  HIDE 0 0 0 0 0 0 0 0 0 0
  MIRR 2 0
  DISZ  0.909
  GLAS  ___BLANK 1 0 1.9460 18.0 0 0 0 0 0 0
  DIAM  13.43 1 0 0 1 ""
  POPS 0 0 0 0 0 0 0 0 1 1 1 1 0 0 0 0
SURF 2
  TYPE STANDARD
  CURV 0.018711874555593 0 0 0 0
  HIDE 0 0 0 0 0 0 0 0 0 0
  MIRR 2 0
  DISZ  2.367
  GLAS  ___BLANK 1 0 1.6200 63.9 0 0 0 0 0 0
  DIAM  12.78 1 0 0 1 ""
  POPS 0 0 0 0 0 0 0 0 1 1 1 1 0 0 0 0
SURF 3
  TYPE STANDARD
  CURV -0.00426333785247146 0 0 0 0
  HIDE 0 0 0 0 0 0 0 0 0 0
  MIRR 2 0
  DISZ  0.099
  DIAM  12.78 1 0 0 1 ""
  POPS 0 0 0 0 0 0 0 0 1 1 1 1 0 0 0 0
SURF 4
  TYPE STANDARD
  CURV 0.0317279015165937 0 0 0 0
  HIDE 0 0 0 0 0 0 0 0 0 0
  MIRR 2 0
  DISZ  2.241
  GLAS  ___BLANK 1 0 1.7292 54.7 0 0 0 0 0 0
  DIAM  11.52 1 0 0 1 ""
  POPS 0 0 0 0 0 0 0 0 1 1 1 1 0 0 0 0
SURF 5
  TYPE STANDARD
  CURV 0.00764859304131005 0 0 0 0
  HIDE 0 0 0 0 0 0 0 0 0 0
  MIRR 2 0
  DISZ  0.387
  DIAM  11.52 1 0 0 1 ""
  POPS 0 0 0 0 0 0 0 0 1 1 1 1 0 0 0 0
SURF 6
  TYPE EVENASPH
  CURV 0.00801089481695105 0 0 0 0
  HIDE 0 0 0 0 0 0 0 0 0 0
  MIRR 2 0
  PARM 1 0
  PARM 2 1.7875E-04
  PARM 3 7.4652E-06
  PARM 4 -4.8572E-07
  PARM 5 9.5759E-09
  PARM 6 -7.8872E-11
  PARM 7 2.2287E-13
  PARM 8 0
  DISZ  0.54
  CONI  0
  GLAS  ___BLANK 1 0 1.8514 40.1 0 0 0 0 0 0
  DIAM  7.47 1 0 0 1 ""
  POPS 0 0 0 0 0 0 0 0 1 1 1 1 0 0 0 0
SURF 7
  TYPE EVENASPH
  CURV 0.112007168458781 0 0 0 0
  HIDE 0 0 0 0 0 0 0 0 0 0
  MIRR 2 0
  PARM 1 0
  PARM 2 1.9949E-04
  PARM 3 1.6787E-05
  PARM 4 -1.3315E-07
  PARM 5 -1.3052E-09
  PARM 6 -1.4789E-10
  PARM 7 2.5094E-12
  PARM 8 0
  DISZ  3.015
  CONI  0
  DIAM  5.245 1 0 0 1 ""
  POPS 0 0 0 0 0 0 0 0 1 1 1 1 0 0 0 0
SURF 8
  TYPE EVENASPH
  CURV -0.0313518936543767 0 0 0 0
  HIDE 0 0 0 0 0 0 0 0 0 0
  MIRR 2 0
  PARM 1 0
  PARM 2 -2.9103E-04
  PARM 3 1.1477E-05
  PARM 4 1.9782E-07
  PARM 5 -3.1387E-08
  PARM 6 7.8965E-10
  PARM 7 -9.7814E-12
  PARM 8 0
  DISZ  0.576
  CONI  0
  GLAS  ___BLANK 1 0 1.8514 40.1 0 0 0 0 0 0
  DIAM  5.85 1 0 0 1 ""
  POPS 0 0 0 0 0 0 0 0 1 1 1 1 0 0 0 0
SURF 9
  TYPE STANDARD
  CURV 0.0392896432500393 0 0 0 0
  HIDE 0 0 0 0 0 0 0 0 0 0
  MIRR 2 0
  DISZ  1.935
  GLAS  ___BLANK 1 0 1.9460 18.0 0 0 0 0 0 0
  DIAM  5.85 1 0 0 1 ""
  POPS 0 0 0 0 0 0 0 0 1 1 1 1 0 0 0 0
SURF 10
  TYPE STANDARD
  CURV -0.0483301918708617 0 0 0 0
  HIDE 0 0 0 0 0 0 0 0 0 0
  MIRR 2 0
  DISZ  0.549
  DIAM  5.85 1 0 0 1 ""
  POPS 0 0 0 0 0 0 0 0 1 1 1 1 0 0 0 0
SURF 11
  TYPE EVENASPH
  CURV -0.075999392004864 0 0 0 0
  HIDE 0 0 0 0 0 0 0 0 0 0
  MIRR 2 0
  PARM 1 0
  PARM 2 1.4650E-04
  PARM 3 -3.9523E-05
  PARM 4 2.6849E-06
  PARM 5 -7.8819E-08
  PARM 6 9.2352E-10
  PARM 7 0
  PARM 8 0
  DISZ  0.405
  CONI  0
  GLAS  ___BLANK 1 0 1.8514 40.1 0 0 0 0 0 0
  DIAM  5.22 1 0 0 1 ""
  POPS 0 0 0 0 0 0 0 0 1 1 1 1 0 0 0 0
SURF 12
  TYPE EVENASPH
  CURV -0.00462885815327075 0 0 0 0
  HIDE 0 0 0 0 0 0 0 0 0 0
  MIRR 2 0
  PARM 1 0
  PARM 2 -1.5610E-04
  PARM 3 -2.9626E-05
  PARM 4 2.5237E-06
  PARM 5 -9.7780E-08
  PARM 6 1.8031E-09
  PARM 7 -1.3091E-11
  PARM 8 0
  DISZ  13.275
  CONI  0
  DIAM  5.22 1 0 0 1 ""
  POPS 0 0 0 0 0 0 0 0 1 1 1 1 0 0 0 0
SURF 13
  STOP
  TYPE STANDARD
  CURV 0 0 0 0 0
  HIDE 0 0 0 0 0 0 0 0 0 0
  MIRR 2 0
  DISZ  0.459
  DIAM  4.0685 1 0 0 1 ""
  POPS 0 0 0 0 0 0 0 0 1 1 1 1 0 0 0 0
SURF 14
  TYPE EVENASPH
  CURV 0.0908512764604343 0 0 0 0
  HIDE 0 0 0 0 0 0 0 0 0 0
  MIRR 2 0
  PARM 1 0
  PARM 2 -1.1150E-04
  PARM 3 1.2922E-06
  PARM 4 -5.5346E-07
  PARM 5 5.2803E-08
  PARM 6 -2.3304E-09
  PARM 7 3.4231E-11
  PARM 8 0
  DISZ  2.466
  CONI  0
  GLAS  ___BLANK 1 0 1.6188 63.9 0 0 0 0 0 0
  DIAM  5.76 1 0 0 1 ""
  POPS 0 0 0 0 0 0 0 0 1 1 1 1 0 0 0 0
SURF 15
  TYPE EVENASPH
  CURV -0.0226019347256125 0 0 0 0
  HIDE 0 0 0 0 0 0 0 0 0 0
  MIRR 2 0
  PARM 1 0
  PARM 2 1.1150E-04
  PARM 3 2.0908E-07
  PARM 4 -6.3760E-07
  PARM 5 7.4036E-08
  PARM 6 -3.4839E-09
  PARM 7 5.3040E-11
  PARM 8 0
  DISZ  0.99
  CONI  0
  DIAM  5.76 1 0 0 1 ""
  POPS 0 0 0 0 0 0 0 0 1 1 1 1 0 0 0 0
SURF 16
  TYPE EVENASPH
  CURV 0.00518483952921657 0 0 0 0
  HIDE 0 0 0 0 0 0 0 0 0 0
  MIRR 2 0
  PARM 1 0
  PARM 2 -7.3701E-05
  PARM 3 -1.6081E-06
  PARM 4 2.5056E-07
  PARM 5 -1.0804E-09
  PARM 6 1.1829E-10
  PARM 7 -7.7486E-12
  PARM 8 0
  DISZ  1.458
  CONI  0
  GLAS  ___BLANK 1 0 1.4971 81.6 0 0 0 0 0 0
  DIAM  5.76 1 0 0 1 ""
  POPS 0 0 0 0 0 0 0 0 1 1 1 1 0 0 0 0
SURF 17
  TYPE EVENASPH
  CURV -0.0313961885027158 0 0 0 0
  HIDE 0 0 0 0 0 0 0 0 0 0
  MIRR 2 0
  PARM 1 0
  PARM 2 -1.2266E-04
  PARM 3 6.6850E-07
  PARM 4 4.4907E-07
  PARM 5 -4.2749E-08
  PARM 6 2.4219E-09
  PARM 7 -4.7835E-11
  PARM 8 0
  DISZ  0.099
  CONI  0
  DIAM  5.76 1 0 0 1 ""
  POPS 0 0 0 0 0 0 0 0 1 1 1 1 0 0 0 0
SURF 18
  TYPE STANDARD
  CURV 0.0445335114673792 0 0 0 0
  HIDE 0 0 0 0 0 0 0 0 0 0
  MIRR 2 0
  DISZ  0.432
  GLAS  ___BLANK 1 0 2.0010 29.1 0 0 0 0 0 0
  DIAM  5.13 1 0 0 1 ""
  POPS 0 0 0 0 0 0 0 0 1 1 1 1 0 0 0 0
SURF 19
  TYPE STANDARD
  CURV 0.0896780557797507 0 0 0 0
  HIDE 0 0 0 0 0 0 0 0 0 0
  MIRR 2 0
  DISZ  5.13
  DIAM  4.77 1 0 0 1 ""
  POPS 0 0 0 0 0 0 0 0 1 1 1 1 0 0 0 0
SURF 20
  TYPE EVENASPH
  CURV 0.0520670623763407 0 0 0 0
  HIDE 0 0 0 0 0 0 0 0 0 0
  MIRR 2 0
  PARM 1 0
  PARM 2 -8.2764E-05
  PARM 3 8.3996E-07
  PARM 4 -1.5943E-08
  PARM 5 -5.9243E-09
  PARM 6 4.3335E-10
  PARM 7 -8.6983E-12
  PARM 8 0
  DISZ  2.493
  CONI  0
  GLAS  ___BLANK 1 0 1.4971 81.6 0 0 0 0 0 0
  DIAM  5.31 1 0 0 1 ""
  POPS 0 0 0 0 0 0 0 0 1 1 1 1 0 0 0 0
SURF 21
  TYPE STANDARD
  CURV -0.0730033581544751 0 0 0 0
  HIDE 0 0 0 0 0 0 0 0 0 0
  MIRR 2 0
  DISZ  0.576
  GLAS  ___BLANK 1 0 1.9460 18.0 0 0 0 0 0 0
  DIAM  5.31 1 0 0 1 ""
  POPS 0 0 0 0 0 0 0 0 1 1 1 1 0 0 0 0
SURF 22
  TYPE STANDARD
  CURV -0.058913632614587 0 0 0 0
  HIDE 0 0 0 0 0 0 0 0 0 0
  MIRR 2 0
  DISZ  4.896
  DIAM  5.31 1 0 0 1 ""
  POPS 0 0 0 0 0 0 0 0 1 1 1 1 0 0 0 0
SURF 23
  TYPE STANDARD
  CURV -0.0114065405103286 0 0 0 0
  HIDE 0 0 0 0 0 0 0 0 0 0
  MIRR 2 0
  DISZ  0.99
  GLAS  ___BLANK 1 0 1.8467 23.8 0 0 0 0 0 0
  DIAM  5.67 1 0 0 1 ""
  POPS 0 0 0 0 0 0 0 0 1 1 1 1 0 0 0 0
SURF 24
  TYPE STANDARD
  CURV -0.0341040856694632 0 0 0 0
  HIDE 0 0 0 0 0 0 0 0 0 0
  MIRR 2 0
  DISZ  0.099
  DIAM  5.67 1 0 0 1 ""
  POPS 0 0 0 0 0 0 0 0 1 1 1 1 0 0 0 0
SURF 25
  TYPE EVENASPH
  CURV -0.0256429981793471 0 0 0 0
  HIDE 0 0 0 0 0 0 0 0 0 0
  MIRR 2 0
  PARM 1 0
  PARM 2 -2.1816E-05
  PARM 3 1.0163E-06
  PARM 4 1.0095E-08
  PARM 5 -4.2016E-09
  PARM 6 1.0920E-10
  PARM 7 0
  PARM 8 0
  DISZ  0.441
  CONI  0
  GLAS  ___BLANK 1 0 1.8514 40.1 0 0 0 0 0 0
  DIAM  5.67 1 0 0 1 ""
  POPS 0 0 0 0 0 0 0 0 1 1 1 1 0 0 0 0
SURF 26
  TYPE EVENASPH
  CURV 0.0206066600725354 0 0 0 0
  HIDE 0 0 0 0 0 0 0 0 0 0
  MIRR 2 0
  PARM 1 0
  PARM 2 -4.4602E-05
  PARM 3 2.5689E-06
  PARM 4 -7.9396E-08
  PARM 5 -1.2129E-09
  PARM 6 6.6617E-11
  PARM 7 0
  PARM 8 0
  DISZ  4.365
  CONI  0
  DIAM  5.67 1 0 0 1 ""
  POPS 0 0 0 0 0 0 0 0 1 1 1 1 0 0 0 0
SURF 27
  TYPE EVENASPH
  CURV 0.0563729635266926 0 0 0 0
  HIDE 0 0 0 0 0 0 0 0 0 0
  MIRR 2 0
  PARM 1 0
  PARM 2 -3.6173E-04
  PARM 3 4.2929E-06
  PARM 4 2.7782E-09
  PARM 5 -3.1279E-09
  PARM 6 5.5110E-11
  PARM 7 0
  PARM 8 0
  DISZ  1.08
  CONI  0
  GLAS  ___BLANK 1 0 1.8514 40.1 0 0 0 0 0 0
  DIAM  6.57 1 0 0 1 ""
  POPS 0 0 0 0 0 0 0 0 1 1 1 1 0 0 0 0
SURF 28
  TYPE EVENASPH
  CURV 0.051062091503268 0 0 0 0
  HIDE 0 0 0 0 0 0 0 0 0 0
  MIRR 2 0
  PARM 1 0
  PARM 2 -3.3451E-04
  PARM 3 4.2172E-06
  PARM 4 2.7186E-08
  PARM 5 -3.9169E-09
  PARM 6 6.4376E-11
  PARM 7 0
  PARM 8 0
  DISZ  4.986
  CONI  0
  DIAM  5.88 1 0 0 1 ""
  POPS 0 0 0 0 0 0 0 0 1 1 1 1 0 0 0 0
SURF 29
  TYPE STANDARD
  CURV 0 0 0 0 0
  HIDE 0 0 0 0 0 0 0 0 0 0
  MIRR 2 0
  DISZ  0.288
  GLAS  ___BLANK 1 0 1.5168 64.2 0 0 0 0 0 0
  DIAM  8.01 1 0 0 1 ""
  POPS 0 0 0 0 0 0 0 0 1 1 1 1 0 0 0 0
SURF 30
  TYPE STANDARD
  CURV 0 0 0 0 0
  HIDE 0 0 0 0 0 0 0 0 0 0
  MIRR 2 0
  DISZ  1.251
  DIAM  8.01 1 0 0 1 ""
  POPS 0 0 0 0 0 0 0 0 1 1 1 1 0 0 0 0
SURF 31
  TYPE STANDARD
  CURV 0 0 0 0 0
  HIDE 0 0 0 0 0 0 0 0 0 0
  MIRR 2 0
  DISZ  0.486
  GLAS  ___BLANK 1 0 1.5567 58.6 0 0 0 0 0 0
  DIAM  8.01 1 0 0 1 ""
  POPS 0 0 0 0 0 0 0 0 1 1 1 1 0 0 0 0
SURF 32
  TYPE STANDARD
  CURV 0 0 0 0 0
  HIDE 0 0 0 0 0 0 0 0 0 0
  MIRR 2 0
  DISZ  0.963
  DIAM  8.01 1 0 0 1 ""
  POPS 0 0 0 0 0 0 0 0 1 1 1 1 0 0 0 0
SURF 33
  TYPE STANDARD
  CURV 0.0 0 0 0 0 ""
  HIDE 0 0 0 0 0 0 0 0 0 0
  MIRR 2 0
  DISZ 0
  DIAM 7.2 1 0 0 1 ""
  POPS 0 0 0 0 0 0 0 0 1 1 1 1 0 0 0 0
TOL TOFF   0   0              0              0   0 0 0 0
MNUM 3 1
SDIA   13   1 4.0685 0 0 0 1 1 1 0 0
SDIA   13   2 3.989 0 0 0 1 1 1 0 0
SDIA   13   3 4.272 0 0 0 1 1 1 0 0
THIC   5   1 0.387 0 0 0 1 1 1 0 0
THIC   5   2 10.062 0 0 0 1 1 1 0 0
THIC   5   3 21.987 0 0 0 1 1 1 0 0
THIC   12   1 13.275 0 0 0 1 1 1 0 0
THIC   12   2 6.003 0 0 0 1 1 1 0 0
THIC   12   3 1.737 0 0 0 1 1 1 0 0
THIC   19   1 5.130 0 0 0 1 1 1 0 0
THIC   19   2 1.206 0 0 0 1 1 1 0 0
THIC   19   3 1.278 0 0 0 1 1 1 0 0
THIC   22   1 4.896 0 0 0 1 1 1 0 0
THIC   22   2 5.805 0 0 0 1 1 1 0 0
THIC   22   3 6.237 0 0 0 1 1 1 0 0
THIC   26   1 4.365 0 0 0 1 1 1 0 0
THIC   26   2 5.274 0 0 0 1 1 1 0 0
THIC   26   3 7.983 0 0 0 1 1 1 0 0
THIC   28   1 4.986 0 0 0 1 1 1 0 0
THIC   28   2 13.527 0 0 0 1 1 1 0 0
THIC   28   3 17.964 0 0 0 1 1 1 0 0
THIC   33   1 14.40 0 0 0 1 1 1 0 0
THIC   33   2 15.84 0 0 0 1 1 1 0 0
THIC   33   3 15.84 0 0 0 1 1 1 0 0
