VERS 161019 507 33785
MODE SEQ
NAME US 2013/0314585 Example 3 (Zeiss Vario-Sonnar T 10.4-37.1mm F1.8-4.9 (Sony DSC-RX100M1-2))
NOTE 0 Prepared and converted by Bill Claff.
PFIL 0 0 0
LANG 0
UNIT MM X W X CM MR CPMM
FLOA
ENVD 20 1 0
GFAC 0 0
RAIM 0 2 1 1 0 1 0 0 0
SDMA 0 1 0
FTYP 3 0 3 3 0 0 0
ROPD 2
HYPR 0
PICB 1
XFLN 0 0 0 0 0 0 0 0 0 0 0 0
YFLN 0 4.41 6.3 0 0 0 0 0 0 0 0 0 0
FWGN 1 1 1 1 1 1 1 1 1 1 1 1
VDXN 0 0 0 0 0 0 0 0 0 0 0 0
VDYN 0 0 0 0 0 0 0 0 0 0 0 0
VCXN 0 0 0 0 0 0 0 0 0 0 0 0
VCYN 0 0 0 0 0 0 0 0 0 0 0 0
VANN 0 0 0 0 0 0 0 0 0 0 0 0
WAVM 1 0.4861327 1
WAVM 2 0.5875618 1
WAVM 3 0.6562725 1
WAVM 4 0.550 1
WAVM 5 0.550 1
WAVM 6 0.550 1
WAVM 7 0.550 1
WAVM 8 0.550 1
WAVM 9 0.550 1
WAVM 10 0.550 1
WAVM 11 0.550 1
WAVM 12 0.550 1
WAVM 13 0.550 1
WAVM 14 0.550 1
WAVM 15 0.550 1
WAVM 16 0.550 1
WAVM 17 0.550 1
WAVM 18 0.550 1
WAVM 19 0.550 1
WAVM 20 0.550 1
WAVM 21 0.550 1
WAVM 22 0.550 1
WAVM 23 0.550 1
WAVM 24 0.550 1
PWAV 2
POLS 1 0 1 0 0 1 0
GSTD 0 100 100 100 100 100 100 0 1 1 0 0 1 1 1 1 1 1
NSCD 100 500 0 1.0E-3 5 1.0E-6 0 0 0 0 0 0 1000000 0 2
SURF 0
  TYPE STANDARD
  CURV 0.0 0 0 0 0 ""
  HIDE 0 0 0 0 0 0 0 0 0 0
  MIRR 2 0
  DISZ INFINITY
  DIAM 0 1 0 0 1 ""
  POPS 0 0 0 0 0 0 0 0 1 1 1 1 0 0 0 0
SURF 1
  TYPE EVENASPH
  CURV -0.0138328466476788 0 0 0 0
  HIDE 0 0 0 0 0 0 0 0 0 0
  MIRR 2 0
  PARM 1 0
  PARM 2 -1.27013E-05
  PARM 3 2.33648E-07
  PARM 4 -1.18572E-09
  PARM 5 2.70274E-12
  PARM 6 0
  PARM 7 0
  PARM 8 0
  DISZ  0.5
  CONI  0
  GLAS  ___BLANK 1 0 1.851348 40.1045 0 0 0 0 0 0
  DIAM  11.235 1 0 0 1 ""
  POPS 0 0 0 0 0 0 0 0 1 1 1 1 0 0 0 0
SURF 2
  TYPE EVENASPH
  CURV 0.0623289848478238 0 0 0 0
  HIDE 0 0 0 0 0 0 0 0 0 0
  MIRR 2 0
  PARM 1 0
  PARM 2 -3.15446E-05
  PARM 3 1.57628E-07
  PARM 4 -5.07497E-10
  PARM 5 9.20126E-13
  PARM 6 0
  PARM 7 0
  PARM 8 0
  DISZ  3.876
  CONI  0
  DIAM  10.41 1 0 0 1 ""
  POPS 0 0 0 0 0 0 0 0 1 1 1 1 0 0 0 0
SURF 3
  TYPE STANDARD
  CURV 0.0407695663341229 0 0 0 0
  HIDE 0 0 0 0 0 0 0 0 0 0
  MIRR 2 0
  DISZ  2.07
  GLAS  ___BLANK 1 0 2.002700 19.3170 0 0 0 0 0 0
  DIAM  9.945 1 0 0 1 ""
  POPS 0 0 0 0 0 0 0 0 1 1 1 1 0 0 0 0
SURF 4
  TYPE STANDARD
  CURV 0.0189753320683112 0 0 0 0
  HIDE 0 0 0 0 0 0 0 0 0 0
  MIRR 2 0
  DISZ  25.677
  DIAM  9.945 1 0 0 1 ""
  POPS 0 0 0 0 0 0 0 0 1 1 1 1 0 0 0 0
SURF 5
  TYPE STANDARD
  CURV 0 0 0 0 0
  HIDE 0 0 0 0 0 0 0 0 0 0
  MIRR 2 0
  DISZ  0
  DIAM  6.68 1 0 0 1 ""
  POPS 0 0 0 0 0 0 0 0 1 1 1 1 0 0 0 0
SURF 6
  TYPE EVENASPH
  CURV 0.0824551856066228 0 0 0 0
  HIDE 0 0 0 0 0 0 0 0 0 0
  MIRR 2 0
  PARM 1 0
  PARM 2 -5.93351E-05
  PARM 3 3.90662E-07
  PARM 4 -1.58802E-08
  PARM 5 3.16018E-10
  PARM 6 0
  PARM 7 0
  PARM 8 0
  DISZ  3.15
  CONI  0
  GLAS  ___BLANK 1 0 1.773760 47.1670 0 0 0 0 0 0
  DIAM  6.995 1 0 0 1 ""
  POPS 0 0 0 0 0 0 0 0 1 1 1 1 0 0 0 0
SURF 7
  TYPE EVENASPH
  CURV 0.0087719298245614 0 0 0 0
  HIDE 0 0 0 0 0 0 0 0 0 0
  MIRR 2 0
  PARM 1 0
  PARM 2 -1.09305E-05
  PARM 3 7.48060E-07
  PARM 4 -1.07073E-08
  PARM 5 2.98355E-10
  PARM 6 0
  PARM 7 0
  PARM 8 0
  DISZ  0.138
  CONI  0
  DIAM  6.995 1 0 0 1 ""
  POPS 0 0 0 0 0 0 0 0 1 1 1 1 0 0 0 0
SURF 8
  TYPE STANDARD
  CURV 0.0609889975848357 0 0 0 0
  HIDE 0 0 0 0 0 0 0 0 0 0
  MIRR 2 0
  DISZ  3.75
  GLAS  ___BLANK 1 0 1.834810 42.7207 0 0 0 0 0 0
  DIAM  6.315 1 0 0 1 ""
  POPS 0 0 0 0 0 0 0 0 1 1 1 1 0 0 0 0
SURF 9
  TYPE STANDARD
  CURV -0.0424559943618439 0 0 0 0
  HIDE 0 0 0 0 0 0 0 0 0 0
  MIRR 2 0
  DISZ  0.851
  GLAS  ___BLANK 1 0 1.755200 27.5305 0 0 0 0 0 0
  DIAM  5.685 1 0 0 1 ""
  POPS 0 0 0 0 0 0 0 0 1 1 1 1 0 0 0 0
SURF 10
  TYPE STANDARD
  CURV 0.141544820167306 0 0 0 0
  HIDE 0 0 0 0 0 0 0 0 0 0
  MIRR 2 0
  DISZ  2.59
  DIAM  4.53 1 0 0 1 ""
  POPS 0 0 0 0 0 0 0 0 1 1 1 1 0 0 0 0
SURF 11
  STOP
  TYPE STANDARD
  CURV 0 0 0 0 0
  HIDE 0 0 0 0 0 0 0 0 0 0
  MIRR 2 0
  DISZ  0.65
  DIAM  4.3375 1 0 0 1 ""
  POPS 0 0 0 0 0 0 0 0 1 1 1 1 0 0 0 0
SURF 12
  TYPE EVENASPH
  CURV 0.101744925471842 0 0 0 0
  HIDE 0 0 0 0 0 0 0 0 0 0
  MIRR 2 0
  PARM 1 0
  PARM 2 2.93742E-05
  PARM 3 3.24622E-06
  PARM 4 -7.05936E-08
  PARM 5 2.04068E-09
  PARM 6 0
  PARM 7 0
  PARM 8 0
  DISZ  3.45
  CONI  0
  GLAS  ___BLANK 1 0 1.592014 67.0227 0 0 0 0 0 0
  DIAM  4.96 1 0 0 1 ""
  POPS 0 0 0 0 0 0 0 0 1 1 1 1 0 0 0 0
SURF 13
  TYPE EVENASPH
  CURV 0.076715355345526 0 0 0 0
  HIDE 0 0 0 0 0 0 0 0 0 0
  MIRR 2 0
  PARM 1 0
  PARM 2 1.82865E-04
  PARM 3 6.01753E-06
  PARM 4 -1.65902E-07
  PARM 5 5.31568E-09
  PARM 6 0
  PARM 7 0
  PARM 8 0
  DISZ  5.953
  CONI  0
  DIAM  3.605 1 0 0 1 ""
  POPS 0 0 0 0 0 0 0 0 1 1 1 1 0 0 0 0
SURF 14
  TYPE EVENASPH
  CURV 0.0145364894959327 0 0 0 0
  HIDE 0 0 0 0 0 0 0 0 0 0
  MIRR 2 0
  PARM 1 0
  PARM 2 3.25663E-06
  PARM 3 2.78857E-07
  PARM 4 -5.22524E-09
  PARM 5 5.52448E-11
  PARM 6 0
  PARM 7 0
  PARM 8 0
  DISZ  3.05
  CONI  0
  GLAS  ___BLANK 1 0 1.592014 67.0227 0 0 0 0 0 0
  DIAM  8.6 1 0 0 1 ""
  POPS 0 0 0 0 0 0 0 0 1 1 1 1 0 0 0 0
SURF 15
  TYPE EVENASPH
  CURV -0.0429002269422005 0 0 0 0
  HIDE 0 0 0 0 0 0 0 0 0 0
  MIRR 2 0
  PARM 1 0
  PARM 2 5.69900E-05
  PARM 3 -5.04925E-07
  PARM 4 1.73218E-09
  PARM 5 3.14415E-11
  PARM 6 0
  PARM 7 0
  PARM 8 0
  DISZ  5.065
  CONI  0
  DIAM  8.6 1 0 0 1 ""
  POPS 0 0 0 0 0 0 0 0 1 1 1 1 0 0 0 0
SURF 16
  TYPE STANDARD
  CURV 0 0 0 0 0
  HIDE 0 0 0 0 0 0 0 0 0 0
  MIRR 2 0
  DISZ  0.3
  GLAS  ___BLANK 1 0 1.516798 64.1983 0 0 0 0 0 0
  DIAM  8.94 1 0 0 1 ""
  POPS 0 0 0 0 0 0 0 0 1 1 1 1 0 0 0 0
SURF 17
  TYPE STANDARD
  CURV 0 0 0 0 0
  HIDE 0 0 0 0 0 0 0 0 0 0
  MIRR 2 0
  DISZ  0.15
  DIAM  8.94 1 0 0 1 ""
  POPS 0 0 0 0 0 0 0 0 1 1 1 1 0 0 0 0
SURF 18
  TYPE STANDARD
  CURV 0 0 0 0 0
  HIDE 0 0 0 0 0 0 0 0 0 0
  MIRR 2 0
  DISZ  0.5
  GLAS  ___BLANK 1 0 1.556708 58.5624 0 0 0 0 0 0
  DIAM  8.94 1 0 0 1 ""
  POPS 0 0 0 0 0 0 0 0 1 1 1 1 0 0 0 0
SURF 19
  TYPE STANDARD
  CURV 0 0 0 0 0
  HIDE 0 0 0 0 0 0 0 0 0 0
  MIRR 2 0
  DISZ  1
  DIAM  8.94 1 0 0 1 ""
  POPS 0 0 0 0 0 0 0 0 1 1 1 1 0 0 0 0
SURF 20
  TYPE STANDARD
  CURV 0.0 0 0 0 0 ""
  HIDE 0 0 0 0 0 0 0 0 0 0
  MIRR 2 0
  DISZ 0
  DIAM 6.3 1 0 0 1 ""
  POPS 0 0 0 0 0 0 0 0 1 1 1 1 0 0 0 0
TOL TOFF   0   0              0              0   0 0 0 0
MNUM 3 1
SDIA   11   1 4.3375 0 0 0 1 1 1 0 0
SDIA   11   2 3.3165 0 0 0 1 1 1 0 0
SDIA   11   3 3.488 0 0 0 1 1 1 0 0
THIC   4   1 25.677 0 0 0 1 1 1 0 0
THIC   4   2 11.421 0 0 0 1 1 1 0 0
THIC   4   3 2.700 0 0 0 1 1 1 0 0
THIC   11   1 0.650 0 0 0 1 1 1 0 0
THIC   11   2 1.952 0 0 0 1 1 1 0 0
THIC   11   3 1.070 0 0 0 1 1 1 0 0
THIC   13   1 5.953 0 0 0 1 1 1 0 0
THIC   13   2 14.438 0 0 0 1 1 1 0 0
THIC   13   3 29.463 0 0 0 1 1 1 0 0
THIC   15   1 5.065 0 0 0 1 1 1 0 0
THIC   15   2 4.371 0 0 0 1 1 1 0 0
THIC   15   3 3.625 0 0 0 1 1 1 0 0
THIC   20   1 12.6 0 0 0 1 1 1 0 0
THIC   20   2 15.86 0 0 0 1 1 1 0 0
THIC   20   3 15.86 0 0 0 1 1 1 0 0
