VERS 161019 507 33785
MODE SEQ
NAME JP 2015-161792 Example 1 (Zeiss Touit 2.8 50M)
NOTE 0 Prepared and converted by Bill Claff.
PFIL 0 0 0
LANG 0
UNIT MM X W X CM MR CPMM
FLOA
ENVD 20 1 0
GFAC 0 0
RAIM 0 2 1 1 0 1 0 0 0
SDMA 0 1 0
FTYP 3 0 3 3 0 0 0
ROPD 2
HYPR 0
PICB 1
XFLN 0 0 0 0 0 0 0 0 0 0 0 0
YFLN 0 9.8 14 0 0 0 0 0 0 0 0 0 0
FWGN 1 1 1 1 1 1 1 1 1 1 1 1
VDXN 0 0 0 0 0 0 0 0 0 0 0 0
VDYN 0 0 0 0 0 0 0 0 0 0 0 0
VCXN 0 0 0 0 0 0 0 0 0 0 0 0
VCYN 0 0 0 0 0 0 0 0 0 0 0 0
VANN 0 0 0 0 0 0 0 0 0 0 0 0
WAVM 1 0.4861327 1
WAVM 2 0.5875618 1
WAVM 3 0.6562725 1
WAVM 4 0.550 1
WAVM 5 0.550 1
WAVM 6 0.550 1
WAVM 7 0.550 1
WAVM 8 0.550 1
WAVM 9 0.550 1
WAVM 10 0.550 1
WAVM 11 0.550 1
WAVM 12 0.550 1
WAVM 13 0.550 1
WAVM 14 0.550 1
WAVM 15 0.550 1
WAVM 16 0.550 1
WAVM 17 0.550 1
WAVM 18 0.550 1
WAVM 19 0.550 1
WAVM 20 0.550 1
WAVM 21 0.550 1
WAVM 22 0.550 1
WAVM 23 0.550 1
WAVM 24 0.550 1
PWAV 2
POLS 1 0 1 0 0 1 0
GSTD 0 100 100 100 100 100 100 0 1 1 0 0 1 1 1 1 1 1
NSCD 100 500 0 1.0E-3 5 1.0E-6 0 0 0 0 0 0 1000000 0 2
SURF 0
  TYPE STANDARD
  CURV 0.0 0 0 0 0 ""
  HIDE 0 0 0 0 0 0 0 0 0 0
  MIRR 2 0
  DISZ INFINITY
  DIAM 0 1 0 0 1 ""
  POPS 0 0 0 0 0 0 0 0 1 1 1 1 0 0 0 0
SURF 1
  TYPE STANDARD
  CURV 0.00125866385531508 0 0 0 0
  HIDE 0 0 0 0 0 0 0 0 0 0
  MIRR 2 0
  DISZ  1.26
  GLAS  ___BLANK 1 0 1.84666 23.78 0 0 0 0 0 0
  DIAM  12.14 1 0 0 1 ""
  POPS 0 0 0 0 0 0 0 0 1 1 1 1 0 0 0 0
SURF 2
  TYPE STANDARD
  CURV 0.0383995084862914 0 0 0 0
  HIDE 0 0 0 0 0 0 0 0 0 0
  MIRR 2 0
  DISZ  4.85
  GLAS  ___BLANK 1 0 1.59522 67.74 0 0 0 0 0 0
  DIAM  10.82 1 0 0 1 ""
  POPS 0 0 0 0 0 0 0 0 1 1 1 1 0 0 0 0
SURF 3
  TYPE STANDARD
  CURV -0.0165174043890047 0 0 0 0
  HIDE 0 0 0 0 0 0 0 0 0 0
  MIRR 2 0
  DISZ  0.1
  DIAM  10.82 1 0 0 1 ""
  POPS 0 0 0 0 0 0 0 0 1 1 1 1 0 0 0 0
SURF 4
  TYPE XOSPHERE
  CURV 0.0424516687750995 0 0 0 0
  HIDE 0 0 0 0 0 0 0 0 0 0
  MIRR 2 0
  XDAT 1 15 0 0 1 0 0 ""
  XDAT 2 1 0 0 1 0 0 ""
  XDAT 3 0 0 0 1 0 0 ""
  XDAT 4 0 0 0 1 0 0 ""
  XDAT 5 -1.9975218E-05 0 0 1 0 0 ""
  XDAT 6 6.2378398E-07 0 0 1 0 0 ""
  XDAT 7 -6.7539764E-07 0 0 1 0 0 ""
  XDAT 8 -1.4423201E-08 0 0 1 0 0 ""
  XDAT 9 7.9012377E-10 0 0 1 0 0 ""
  XDAT 10 1.3838857E-10 0 0 1 0 0 ""
  XDAT 11 2.1167277E-11 0 0 1 0 0 ""
  XDAT 12 4.3025158E-13 0 0 1 0 0 ""
  XDAT 13 -1.6841831E-14 0 0 1 0 0 ""
  XDAT 14 -2.1109000E-14 0 0 1 0 0 ""
  XDAT 15 -2.4650413E-15 0 0 1 0 0 ""
  XDAT 16 -5.8476062E-17 0 0 1 0 0 ""
  XDAT 17 2.9617348E-17 0 0 1 0 0 ""
  DISZ  3.95
  CONI  0
  GLAS  ___BLANK 1 0 1.74330 49.33 0 0 0 0 0 0
  DIAM  10.86 1 0 0 1 ""
  POPS 0 0 0 0 0 0 0 0 1 1 1 1 0 0 0 0
SURF 5
  TYPE STANDARD
  CURV -0.00199636621421688 0 0 0 0
  HIDE 0 0 0 0 0 0 0 0 0 0
  MIRR 2 0
  DISZ  1.6
  DIAM  10.86 1 0 0 1 ""
  POPS 0 0 0 0 0 0 0 0 1 1 1 1 0 0 0 0
SURF 6
  TYPE EVENASPH
  CURV -0.00947528703013236 0 0 0 0
  HIDE 0 0 0 0 0 0 0 0 0 0
  MIRR 2 0
  PARM 1 0
  PARM 2 4.1237569E-05
  PARM 3 -5.6417743E-07
  PARM 4 3.6088348E-09
  PARM 5 -8.3061650E-12
  PARM 6 0
  PARM 7 0
  PARM 8 0
  DISZ  1.1
  CONI  1
  GLAS  ___BLANK 1 0 1.73077 40.50 0 0 0 0 0 0
  DIAM  10.21 1 0 0 1 ""
  POPS 0 0 0 0 0 0 0 0 1 1 1 1 0 0 0 0
SURF 7
  TYPE XASPHERE
  CURV 0.0519755922618738 0 0 0 0
  HIDE 0 0 0 0 0 0 0 0 0 0
  MIRR 2 0
  XDAT 1 14 0 0 1 0 0 ""
  XDAT 2 1 0 0 1 0 0 ""
  XDAT 3 0 0 0 1 0 0 ""
  XDAT 4 -1.7101547E-05 0 0 1 0 0 ""
  XDAT 5 3.8413905E-05 0 0 1 0 0 ""
  XDAT 6 -6.3738905E-07 0 0 1 0 0 ""
  XDAT 7 -2.2519977E-07 0 0 1 0 0 ""
  XDAT 8 -2.8870262E-08 0 0 1 0 0 ""
  XDAT 9 -1.5872068E-09 0 0 1 0 0 ""
  XDAT 10 8.7049597E-11 0 0 1 0 0 ""
  XDAT 11 4.6685223E-11 0 0 1 0 0 ""
  XDAT 12 5.4433814E-12 0 0 1 0 0 ""
  XDAT 13 -1.0209216E-13 0 0 1 0 0 ""
  XDAT 14 -5.5368150E-14 0 0 1 0 0 ""
  XDAT 15 -1.2829288E-14 0 0 1 0 0 ""
  XDAT 16 1.2965500E-15 0 0 1 0 0 ""
  DISZ  2.56
  CONI  0
  DIAM  8.09 1 0 0 1 ""
  POPS 0 0 0 0 0 0 0 0 1 1 1 1 0 0 0 0
SURF 8
  TYPE STANDARD
  CURV -0.0215565557797437 0 0 0 0
  HIDE 0 0 0 0 0 0 0 0 0 0
  MIRR 2 0
  DISZ  1.01
  GLAS  ___BLANK 1 0 1.51680 64.20 0 0 0 0 0 0
  DIAM  8.09 1 0 0 1 ""
  POPS 0 0 0 0 0 0 0 0 1 1 1 1 0 0 0 0
SURF 9
  TYPE STANDARD
  CURV 0.0422922393740749 0 0 0 0
  HIDE 0 0 0 0 0 0 0 0 0 0
  MIRR 2 0
  DISZ  2.32
  GLAS  ___BLANK 1 0 1.84666 23.78 0 0 0 0 0 0
  DIAM  8.74 1 0 0 1 ""
  POPS 0 0 0 0 0 0 0 0 1 1 1 1 0 0 0 0
SURF 10
  TYPE STANDARD
  CURV 0.0154354574066271 0 0 0 0
  HIDE 0 0 0 0 0 0 0 0 0 0
  MIRR 2 0
  DISZ  9.1
  DIAM  8.74 1 0 0 1 ""
  POPS 0 0 0 0 0 0 0 0 1 1 1 1 0 0 0 0
SURF 11
  TYPE STANDARD
  CURV 0.0147608230044474 0 0 0 0
  HIDE 0 0 0 0 0 0 0 0 0 0
  MIRR 2 0
  DISZ  2.95
  GLAS  ___BLANK 1 0 1.92286 20.88 0 0 0 0 0 0
  DIAM  10.2 1 0 0 1 ""
  POPS 0 0 0 0 0 0 0 0 1 1 1 1 0 0 0 0
SURF 12
  TYPE STANDARD
  CURV -0.0147608230044474 0 0 0 0
  HIDE 0 0 0 0 0 0 0 0 0 0
  MIRR 2 0
  DISZ  2.67
  DIAM  10.2 1 0 0 1 ""
  POPS 0 0 0 0 0 0 0 0 1 1 1 1 0 0 0 0
SURF 13
  STOP
  TYPE STANDARD
  CURV 0 0 0 0 0
  HIDE 0 0 0 0 0 0 0 0 0 0
  MIRR 2 0
  DISZ  12.68
  DIAM  8.8805 1 0 0 1 ""
  POPS 0 0 0 0 0 0 0 0 1 1 1 1 0 0 0 0
SURF 14
  TYPE STANDARD
  CURV -0.0309377223648795 0 0 0 0
  HIDE 0 0 0 0 0 0 0 0 0 0
  MIRR 2 0
  DISZ  1.02
  GLAS  ___BLANK 1 0 1.74077 27.79 0 0 0 0 0 0
  DIAM  8.37 1 0 0 1 ""
  POPS 0 0 0 0 0 0 0 0 1 1 1 1 0 0 0 0
SURF 15
  TYPE STANDARD
  CURV 0.0309377223648795 0 0 0 0
  HIDE 0 0 0 0 0 0 0 0 0 0
  MIRR 2 0
  DISZ  4.55
  GLAS  ___BLANK 1 0 1.59522 67.74 0 0 0 0 0 0
  DIAM  9.37 1 0 0 1 ""
  POPS 0 0 0 0 0 0 0 0 1 1 1 1 0 0 0 0
SURF 16
  TYPE STANDARD
  CURV -0.0364805066412762 0 0 0 0
  HIDE 0 0 0 0 0 0 0 0 0 0
  MIRR 2 0
  DISZ  0.11
  DIAM  9.37 1 0 0 1 ""
  POPS 0 0 0 0 0 0 0 0 1 1 1 1 0 0 0 0
SURF 17
  TYPE STANDARD
  CURV 0.0133576442458608 0 0 0 0
  HIDE 0 0 0 0 0 0 0 0 0 0
  MIRR 2 0
  DISZ  2.92
  GLAS  ___BLANK 1 0 1.61800 63.33 0 0 0 0 0 0
  DIAM  10.2 1 0 0 1 ""
  POPS 0 0 0 0 0 0 0 0 1 1 1 1 0 0 0 0
SURF 18
  TYPE STANDARD
  CURV -0.0133576442458608 0 0 0 0
  HIDE 0 0 0 0 0 0 0 0 0 0
  MIRR 2 0
  DISZ  1.52
  DIAM  10.2 1 0 0 1 ""
  POPS 0 0 0 0 0 0 0 0 1 1 1 1 0 0 0 0
SURF 19
  TYPE STANDARD
  CURV 0.0268410980156376 0 0 0 0
  HIDE 0 0 0 0 0 0 0 0 0 0
  MIRR 2 0
  DISZ  3.07
  GLAS  ___BLANK 1 0 1.72916 54.68 0 0 0 0 0 0
  DIAM  10.59 1 0 0 1 ""
  POPS 0 0 0 0 0 0 0 0 1 1 1 1 0 0 0 0
SURF 20
  TYPE STANDARD
  CURV -0.00148248122289283 0 0 0 0
  HIDE 0 0 0 0 0 0 0 0 0 0
  MIRR 2 0
  DISZ  1.85
  DIAM  10.59 1 0 0 1 ""
  POPS 0 0 0 0 0 0 0 0 1 1 1 1 0 0 0 0
SURF 21
  TYPE STANDARD
  CURV -0.00792392399055151 0 0 0 0
  HIDE 0 0 0 0 0 0 0 0 0 0
  MIRR 2 0
  DISZ  1.01
  GLAS  ___BLANK 1 0 1.69895 30.13 0 0 0 0 0 0
  DIAM  11.16 1 0 0 1 ""
  POPS 0 0 0 0 0 0 0 0 1 1 1 1 0 0 0 0
SURF 22
  TYPE STANDARD
  CURV 0.0394074692917296 0 0 0 0
  HIDE 0 0 0 0 0 0 0 0 0 0
  MIRR 2 0
  DISZ  2.75
  DIAM  8.98 1 0 0 1 ""
  POPS 0 0 0 0 0 0 0 0 1 1 1 1 0 0 0 0
SURF 23
  TYPE STANDARD
  CURV -0.0211750456322233 0 0 0 0
  HIDE 0 0 0 0 0 0 0 0 0 0
  MIRR 2 0
  DISZ  1.33
  GLAS  ___BLANK 1 0 1.51742 52.43 0 0 0 0 0 0
  DIAM  8.98 1 0 0 1 ""
  POPS 0 0 0 0 0 0 0 0 1 1 1 1 0 0 0 0
SURF 24
  TYPE STANDARD
  CURV 0 0 0 0 0
  HIDE 0 0 0 0 0 0 0 0 0 0
  MIRR 2 0
  DISZ  1.48
  DIAM  10.81 1 0 0 1 ""
  POPS 0 0 0 0 0 0 0 0 1 1 1 1 0 0 0 0
SURF 25
  TYPE STANDARD
  CURV 0.00336224754144054 0 0 0 0
  HIDE 0 0 0 0 0 0 0 0 0 0
  MIRR 2 0
  DISZ  2.58
  GLAS  ___BLANK 1 0 1.67003 47.23 0 0 0 0 0 0
  DIAM  11.38 1 0 0 1 ""
  POPS 0 0 0 0 0 0 0 0 1 1 1 1 0 0 0 0
SURF 26
  TYPE STANDARD
  CURV -0.0145598131684774 0 0 0 0
  HIDE 0 0 0 0 0 0 0 0 0 0
  MIRR 2 0
  DISZ  1
  DIAM  11.38 1 0 0 1 ""
  POPS 0 0 0 0 0 0 0 0 1 1 1 1 0 0 0 0
SURF 27
  TYPE STANDARD
  CURV 0 0 0 0 0
  HIDE 0 0 0 0 0 0 0 0 0 0
  MIRR 2 0
  DISZ  1.22
  GLAS  ___BLANK 1 0 1.51680 64.20 0 0 0 0 0 0
  DIAM  10.42 1 0 0 1 ""
  POPS 0 0 0 0 0 0 0 0 1 1 1 1 0 0 0 0
SURF 28
  TYPE STANDARD
  CURV 0 0 0 0 0
  HIDE 0 0 0 0 0 0 0 0 0 0
  MIRR 2 0
  DISZ  22.81
  DIAM  10.42 1 0 0 1 ""
  POPS 0 0 0 0 0 0 0 0 1 1 1 1 0 0 0 0
SURF 29
  TYPE STANDARD
  CURV 0.0 0 0 0 0 ""
  HIDE 0 0 0 0 0 0 0 0 0 0
  MIRR 2 0
  DISZ 0
  DIAM 14 1 0 0 1 ""
  POPS 0 0 0 0 0 0 0 0 1 1 1 1 0 0 0 0
TOL TOFF   0   0              0              0   0 0 0 0
MNUM 3 1
SDIA   13   1 8.8805 0 0 0 1 1 1 0 0
SDIA   13   2 8.693 0 0 0 1 1 1 0 0
SDIA   13   3 7.958 0 0 0 1 1 1 0 0
THIC   0   1 1.00E+10 0 0 0 1 1 1 0 0
THIC   0   2 102.28 0 0 0 1 1 1 0 0
THIC   0   3 58.95 0 0 0 1 1 1 0 0
THIC   5   1 1.60 0 0 0 1 1 1 0 0
THIC   5   2 5.25 0 0 0 1 1 1 0 0
THIC   5   3 9.61 0 0 0 1 1 1 0 0
THIC   10   1 9.10 0 0 0 1 1 1 0 0
THIC   10   2 5.45 0 0 0 1 1 1 0 0
THIC   10   3 1.10 0 0 0 1 1 1 0 0
THIC   13   1 12.68 0 0 0 1 1 1 0 0
THIC   13   2 6.82 0 0 0 1 1 1 0 0
THIC   13   3 2.47 0 0 0 1 1 1 0 0
THIC   18   1 1.52 0 0 0 1 1 1 0 0
THIC   18   2 2.54 0 0 0 1 1 1 0 0
THIC   18   3 1.51 0 0 0 1 1 1 0 0
THIC   20   1 1.85 0 0 0 1 1 1 0 0
THIC   20   2 6.69 0 0 0 1 1 1 0 0
THIC   20   3 12.08 0 0 0 1 1 1 0 0
THIC   28   1 22.81 0 0 0 1 1 1 0 0
THIC   28   2 22.81 0 0 0 1 1 1 0 0
THIC   28   3 22.81 0 0 0 1 1 1 0 0
