VERS 161019 507 33785
MODE SEQ
NAME US 7,359,125 Example 1 (Nikon AF-S Nikkor 14-24mm f/2.8G ED)
NOTE 0 Prepared and converted by Bill Claff.
PFIL 0 0 0
LANG 0
UNIT MM X W X CM MR CPMM
FLOA
ENVD 20 1 0
GFAC 0 0
RAIM 0 2 1 1 0 1 0 0 0
SDMA 0 1 0
FTYP 3 0 3 3 0 0 0
ROPD 2
HYPR 0
PICB 1
XFLN 0 0 0 0 0 0 0 0 0 0 0 0
YFLN 0 15.12 21.6 0 0 0 0 0 0 0 0 0 0
FWGN 1 1 1 1 1 1 1 1 1 1 1 1
VDXN 0 0 0 0 0 0 0 0 0 0 0 0
VDYN 0 0 0 0 0 0 0 0 0 0 0 0
VCXN 0 0 0 0 0 0 0 0 0 0 0 0
VCYN 0 0 0 0 0 0 0 0 0 0 0 0
VANN 0 0 0 0 0 0 0 0 0 0 0 0
WAVM 1 0.4861327 1
WAVM 2 0.5875618 1
WAVM 3 0.6562725 1
WAVM 4 0.550 1
WAVM 5 0.550 1
WAVM 6 0.550 1
WAVM 7 0.550 1
WAVM 8 0.550 1
WAVM 9 0.550 1
WAVM 10 0.550 1
WAVM 11 0.550 1
WAVM 12 0.550 1
WAVM 13 0.550 1
WAVM 14 0.550 1
WAVM 15 0.550 1
WAVM 16 0.550 1
WAVM 17 0.550 1
WAVM 18 0.550 1
WAVM 19 0.550 1
WAVM 20 0.550 1
WAVM 21 0.550 1
WAVM 22 0.550 1
WAVM 23 0.550 1
WAVM 24 0.550 1
PWAV 2
POLS 1 0 1 0 0 1 0
GSTD 0 100 100 100 100 100 100 0 1 1 0 0 1 1 1 1 1 1
NSCD 100 500 0 1.0E-3 5 1.0E-6 0 0 0 0 0 0 1000000 0 2
SURF 0
  TYPE STANDARD
  CURV 0.0 0 0 0 0 ""
  HIDE 0 0 0 0 0 0 0 0 0 0
  MIRR 2 0
  DISZ INFINITY
  DIAM 0 1 0 0 1 ""
  POPS 0 0 0 0 0 0 0 0 1 1 1 1 0 0 0 0
SURF 1
  TYPE STANDARD
  CURV 0.0165580184688138 0 0 0 0
  HIDE 0 0 0 0 0 0 0 0 0 0
  MIRR 2 0
  DISZ  3.5
  GLAS  ___BLANK 1 0 1.80400 46.58 0 0 0 0 0 0
  DIAM  41.41 1 0 0 1 ""
  POPS 0 0 0 0 0 0 0 0 1 1 1 1 0 0 0 0
SURF 2
  TYPE STANDARD
  CURV 0.0309882461582322 0 0 0 0
  HIDE 0 0 0 0 0 0 0 0 0 0
  MIRR 2 0
  DISZ  7.0835
  DIAM  31.01 1 0 0 1 ""
  POPS 0 0 0 0 0 0 0 0 1 1 1 1 0 0 0 0
SURF 3
  TYPE STANDARD
  CURV 0.028169014084507 0 0 0 0
  HIDE 0 0 0 0 0 0 0 0 0 0
  MIRR 2 0
  DISZ  4
  GLAS  ___BLANK 1 0 1.67790 55.34 0 0 0 0 0 0
  DIAM  29.73 1 0 0 1 ""
  POPS 0 0 0 0 0 0 0 0 1 1 1 1 0 0 0 0
SURF 4
  TYPE EVENASPH
  CURV 0.0512513005017502 0 0 0 0
  HIDE 0 0 0 0 0 0 0 0 0 0
  MIRR 2 0
  PARM 1 0
  PARM 2 -5.1181e-7
  PARM 3 7.1056e-10
  PARM 4 -1.9817e-11
  PARM 5 1.9226e-14
  PARM 6 -6.0945e-18
  PARM 7 0
  PARM 8 0
  DISZ  12.8951
  CONI  -0.9087
  DIAM  25.89 1 0 0 1 ""
  POPS 0 0 0 0 0 0 0 0 1 1 1 1 0 0 0 0
SURF 5
  TYPE STANDARD
  CURV 0.0114883238420631 0 0 0 0
  HIDE 0 0 0 0 0 0 0 0 0 0
  MIRR 2 0
  DISZ  2.5
  GLAS  ___BLANK 1 0 1.74100 52.67 0 0 0 0 0 0
  DIAM  25.09 1 0 0 1 ""
  POPS 0 0 0 0 0 0 0 0 1 1 1 1 0 0 0 0
SURF 6
  TYPE STANDARD
  CURV 0.0379786256294957 0 0 0 0
  HIDE 0 0 0 0 0 0 0 0 0 0
  MIRR 2 0
  DISZ  0.3
  GLAS  ___BLANK 1 0 1.55389 38.09 0 0 0 0 0 0
  DIAM  19.81 1 0 0 1 ""
  POPS 0 0 0 0 0 0 0 0 1 1 1 1 0 0 0 0
SURF 7
  TYPE EVENASPH
  CURV 0.033063534888642 0 0 0 0
  HIDE 0 0 0 0 0 0 0 0 0 0
  MIRR 2 0
  PARM 1 0
  PARM 2 4.2239e-5
  PARM 3 -7.8972e-8
  PARM 4 2.9788e-10
  PARM 5 -5.9331e-13
  PARM 6 6.0285e-16
  PARM 7 -7.4037e-20
  PARM 8 0
  DISZ  12.6887
  CONI  -7.3795
  DIAM  19.775 1 0 0 1 ""
  POPS 0 0 0 0 0 0 0 0 1 1 1 1 0 0 0 0
SURF 8
  TYPE STANDARD
  CURV -0.0147073963496242 0 0 0 0
  HIDE 0 0 0 0 0 0 0 0 0 0
  MIRR 2 0
  DISZ  2.5896
  GLAS  ___BLANK 1 0 1.49782 82.52 0 0 0 0 0 0
  DIAM  19.775 1 0 0 1 ""
  POPS 0 0 0 0 0 0 0 0 1 1 1 1 0 0 0 0
SURF 9
  TYPE STANDARD
  CURV 0.0208061985826818 0 0 0 0
  HIDE 0 0 0 0 0 0 0 0 0 0
  MIRR 2 0
  DISZ  2
  DIAM  19.65 1 0 0 1 ""
  POPS 0 0 0 0 0 0 0 0 1 1 1 1 0 0 0 0
SURF 10
  TYPE STANDARD
  CURV 0.020623659462135 0 0 0 0
  HIDE 0 0 0 0 0 0 0 0 0 0
  MIRR 2 0
  DISZ  5.9634
  GLAS  ___BLANK 1 0 1.80440 39.59 0 0 0 0 0 0
  DIAM  19.65 1 0 0 1 ""
  POPS 0 0 0 0 0 0 0 0 1 1 1 1 0 0 0 0
SURF 11
  TYPE STANDARD
  CURV -0.00551587800642931 0 0 0 0
  HIDE 0 0 0 0 0 0 0 0 0 0
  MIRR 2 0
  DISZ  31.93
  DIAM  19.65 1 0 0 1 ""
  POPS 0 0 0 0 0 0 0 0 1 1 1 1 0 0 0 0
SURF 12
  TYPE STANDARD
  CURV 0.0288863725648788 0 0 0 0
  HIDE 0 0 0 0 0 0 0 0 0 0
  MIRR 2 0
  DISZ  1
  GLAS  ___BLANK 1 0 1.83481 42.72 0 0 0 0 0 0
  DIAM  12.07 1 0 0 1 ""
  POPS 0 0 0 0 0 0 0 0 1 1 1 1 0 0 0 0
SURF 13
  TYPE STANDARD
  CURV 0.0513776928333256 0 0 0 0
  HIDE 0 0 0 0 0 0 0 0 0 0
  MIRR 2 0
  DISZ  5.2931
  GLAS  ___BLANK 1 0 1.62374 47.04 0 0 0 0 0 0
  DIAM  11.56 1 0 0 1 ""
  POPS 0 0 0 0 0 0 0 0 1 1 1 1 0 0 0 0
SURF 14
  TYPE STANDARD
  CURV 0.00163505826530128 0 0 0 0
  HIDE 0 0 0 0 0 0 0 0 0 0
  MIRR 2 0
  DISZ  5.86
  DIAM  11.56 1 0 0 1 ""
  POPS 0 0 0 0 0 0 0 0 1 1 1 1 0 0 0 0
SURF 15
  STOP
  TYPE STANDARD
  CURV 0 0 0 0 0
  HIDE 0 0 0 0 0 0 0 0 0 0
  MIRR 2 0
  DISZ  1.6689
  DIAM  9.1645 1 0 0 1 ""
  POPS 0 0 0 0 0 0 0 0 1 1 1 1 0 0 0 0
SURF 16
  TYPE STANDARD
  CURV -0.00376593508356422 0 0 0 0
  HIDE 0 0 0 0 0 0 0 0 0 0
  MIRR 2 0
  DISZ  2.6545
  GLAS  ___BLANK 1 0 1.51680 64.20 0 0 0 0 0 0
  DIAM  11.86 1 0 0 1 ""
  POPS 0 0 0 0 0 0 0 0 1 1 1 1 0 0 0 0
SURF 17
  TYPE STANDARD
  CURV -0.0211609309963201 0 0 0 0
  HIDE 0 0 0 0 0 0 0 0 0 0
  MIRR 2 0
  DISZ  9.0744
  DIAM  11.86 1 0 0 1 ""
  POPS 0 0 0 0 0 0 0 0 1 1 1 1 0 0 0 0
SURF 18
  TYPE STANDARD
  CURV -0.035800975218565 0 0 0 0
  HIDE 0 0 0 0 0 0 0 0 0 0
  MIRR 2 0
  DISZ  1.6819
  GLAS  ___BLANK 1 0 1.83481 42.72 0 0 0 0 0 0
  DIAM  11.76 1 0 0 1 ""
  POPS 0 0 0 0 0 0 0 0 1 1 1 1 0 0 0 0
SURF 19
  TYPE STANDARD
  CURV 0.00721097510410845 0 0 0 0
  HIDE 0 0 0 0 0 0 0 0 0 0
  MIRR 2 0
  DISZ  0.1
  DIAM  11.76 1 0 0 1 ""
  POPS 0 0 0 0 0 0 0 0 1 1 1 1 0 0 0 0
SURF 20
  TYPE STANDARD
  CURV 0.0280312267866403 0 0 0 0
  HIDE 0 0 0 0 0 0 0 0 0 0
  MIRR 2 0
  DISZ  4.4701
  GLAS  ___BLANK 1 0 1.57099 50.80 0 0 0 0 0 0
  DIAM  12.27 1 0 0 1 ""
  POPS 0 0 0 0 0 0 0 0 1 1 1 1 0 0 0 0
SURF 21
  TYPE STANDARD
  CURV -0.0139136435797579 0 0 0 0
  HIDE 0 0 0 0 0 0 0 0 0 0
  MIRR 2 0
  DISZ  0.1
  DIAM  12.27 1 0 0 1 ""
  POPS 0 0 0 0 0 0 0 0 1 1 1 1 0 0 0 0
SURF 22
  TYPE STANDARD
  CURV 0.0367540309983497 0 0 0 0
  HIDE 0 0 0 0 0 0 0 0 0 0
  MIRR 2 0
  DISZ  1.3817
  GLAS  ___BLANK 1 0 1.77279 49.45 0 0 0 0 0 0
  DIAM  12.58 1 0 0 1 ""
  POPS 0 0 0 0 0 0 0 0 1 1 1 1 0 0 0 0
SURF 23
  TYPE STANDARD
  CURV 0.0608579757420109 0 0 0 0
  HIDE 0 0 0 0 0 0 0 0 0 0
  MIRR 2 0
  DISZ  8.491
  GLAS  ___BLANK 1 0 1.49782 82.52 0 0 0 0 0 0
  DIAM  12.17 1 0 0 1 ""
  POPS 0 0 0 0 0 0 0 0 1 1 1 1 0 0 0 0
SURF 24
  TYPE STANDARD
  CURV -0.0188679245283019 0 0 0 0
  HIDE 0 0 0 0 0 0 0 0 0 0
  MIRR 2 0
  DISZ  1.721
  DIAM  12.17 1 0 0 1 ""
  POPS 0 0 0 0 0 0 0 0 1 1 1 1 0 0 0 0
SURF 25
  TYPE STANDARD
  CURV 0.00074810503125321 0 0 0 0
  HIDE 0 0 0 0 0 0 0 0 0 0
  MIRR 2 0
  DISZ  1
  GLAS  ___BLANK 1 0 1.80610 40.94 0 0 0 0 0 0
  DIAM  12.48 1 0 0 1 ""
  POPS 0 0 0 0 0 0 0 0 1 1 1 1 0 0 0 0
SURF 26
  TYPE STANDARD
  CURV 0.0490619357877384 0 0 0 0
  HIDE 0 0 0 0 0 0 0 0 0 0
  MIRR 2 0
  DISZ  6.3537
  GLAS  ___BLANK 1 0 1.58913 61.18 0 0 0 0 0 0
  DIAM  12.48 1 0 0 1 ""
  POPS 0 0 0 0 0 0 0 0 1 1 1 1 0 0 0 0
SURF 27
  TYPE EVENASPH
  CURV -0.0166351984163291 0 0 0 0
  HIDE 0 0 0 0 0 0 0 0 0 0
  MIRR 2 0
  PARM 1 0
  PARM 2 1.9855e-5
  PARM 3 6.9569e-9
  PARM 4 1.5384e-10
  PARM 5 -5.8393e-13
  PARM 6 0
  PARM 7 0
  PARM 8 0
  DISZ  38.7
  CONI  5.0164
  DIAM  12.48 1 0 0 1 ""
  POPS 0 0 0 0 0 0 0 0 1 1 1 1 0 0 0 0
SURF 28
  TYPE STANDARD
  CURV 0.0 0 0 0 0 ""
  HIDE 0 0 0 0 0 0 0 0 0 0
  MIRR 2 0
  DISZ 0
  DIAM 21.6 1 0 0 1 ""
  POPS 0 0 0 0 0 0 0 0 1 1 1 1 0 0 0 0
TOL TOFF   0   0              0              0   0 0 0 0
MNUM 9 1
SDIA   15   1 9.1645 0 0 0 1 1 1 0 0
SDIA   15   2 9.89 0 0 0 1 1 1 0 0
SDIA   15   3 11.145 0 0 0 1 1 1 0 0
SDIA   15   4 9.1645 0 0 0 1 1 1 0 0
SDIA   15   5 9.89 0 0 0 1 1 1 0 0
SDIA   15   6 11.145 0 0 0 1 1 1 0 0
SDIA   15   7 9.1645 0 0 0 1 1 1 0 0
SDIA   15   8 9.89 0 0 0 1 1 1 0 0
SDIA   15   9 11.145 0 0 0 1 1 1 0 0
THIC   0   1 1.00E+10 0 0 0 1 1 1 0 0
THIC   0   2 1.00E+10 0 0 0 1 1 1 0 0
THIC   0   3 1.00E+10 0 0 0 1 1 1 0 0
THIC   0   4 536.77 0 0 0 1 1 1 0 0
THIC   0   5 682.52 0 0 0 1 1 1 0 0
THIC   0   6 916.19 0 0 0 1 1 1 0 0
THIC   0   7 125 0 0 0 1 1 1 0 0
THIC   0   8 134.71 0 0 0 1 1 1 0 0
THIC   0   9 140.46 0 0 0 1 1 1 0 0
THIC   11   1 31.93 0 0 0 1 1 1 0 0
THIC   11   2 16.37 0 0 0 1 1 1 0 0
THIC   11   3 1.2 0 0 0 1 1 1 0 0
THIC   11   4 33.18 0 0 0 1 1 1 0 0
THIC   11   5 17.33 0 0 0 1 1 1 0 0
THIC   11   6 1.95 0 0 0 1 1 1 0 0
THIC   11   7 36.36 0 0 0 1 1 1 0 0
THIC   11   8 20.38 0 0 0 1 1 1 0 0
THIC   11   9 5.21 0 0 0 1 1 1 0 0
THIC   14   1 5.86 0 0 0 1 1 1 0 0
THIC   14   2 5.86 0 0 0 1 1 1 0 0
THIC   14   3 5.86 0 0 0 1 1 1 0 0
THIC   14   4 4.61 0 0 0 1 1 1 0 0
THIC   14   5 4.9 0 0 0 1 1 1 0 0
THIC   14   6 5.11 0 0 0 1 1 1 0 0
THIC   14   7 1.43 0 0 0 1 1 1 0 0
THIC   14   8 1.85 0 0 0 1 1 1 0 0
THIC   14   9 1.85 0 0 0 1 1 1 0 0
THIC   27   1 38.7 0 0 0 1 1 1 0 0
THIC   27   2 44.55 0 0 0 1 1 1 0 0
THIC   27   3 53.97 0 0 0 1 1 1 0 0
THIC   27   4 38.7 0 0 0 1 1 1 0 0
THIC   27   5 44.55 0 0 0 1 1 1 0 0
THIC   27   6 53.97 0 0 0 1 1 1 0 0
THIC   27   7 38.7 0 0 0 1 1 1 0 0
THIC   27   8 44.55 0 0 0 1 1 1 0 0
THIC   27   9 53.97 0 0 0 1 1 1 0 0
