VERS 161019 507 33785
MODE SEQ
NAME US 6,693,750 Example 1 (Nikon AF-S Zoom-Nikkor 70-200mm f/2.8G IF-ED VR)
NOTE 0 Prepared and converted by Bill Claff.
PFIL 0 0 0
LANG 0
UNIT MM X W X CM MR CPMM
FLOA
ENVD 20 1 0
GFAC 0 0
RAIM 0 2 1 1 0 1 0 0 0
SDMA 0 1 0
FTYP 3 0 3 3 0 0 0
ROPD 2
HYPR 0
PICB 1
XFLN 0 0 0 0 0 0 0 0 0 0 0 0
YFLN 0 15.12 21.6 0 0 0 0 0 0 0 0 0 0
FWGN 1 1 1 1 1 1 1 1 1 1 1 1
VDXN 0 0 0 0 0 0 0 0 0 0 0 0
VDYN 0 0 0 0 0 0 0 0 0 0 0 0
VCXN 0 0 0 0 0 0 0 0 0 0 0 0
VCYN 0 0 0 0 0 0 0 0 0 0 0 0
VANN 0 0 0 0 0 0 0 0 0 0 0 0
WAVM 1 0.4861327 1
WAVM 2 0.5875618 1
WAVM 3 0.6562725 1
WAVM 4 0.550 1
WAVM 5 0.550 1
WAVM 6 0.550 1
WAVM 7 0.550 1
WAVM 8 0.550 1
WAVM 9 0.550 1
WAVM 10 0.550 1
WAVM 11 0.550 1
WAVM 12 0.550 1
WAVM 13 0.550 1
WAVM 14 0.550 1
WAVM 15 0.550 1
WAVM 16 0.550 1
WAVM 17 0.550 1
WAVM 18 0.550 1
WAVM 19 0.550 1
WAVM 20 0.550 1
WAVM 21 0.550 1
WAVM 22 0.550 1
WAVM 23 0.550 1
WAVM 24 0.550 1
PWAV 2
POLS 1 0 1 0 0 1 0
GSTD 0 100 100 100 100 100 100 0 1 1 0 0 1 1 1 1 1 1
NSCD 100 500 0 1.0E-3 5 1.0E-6 0 0 0 0 0 0 1000000 0 2
SURF 0
  TYPE STANDARD
  CURV 0.0 0 0 0 0 ""
  HIDE 0 0 0 0 0 0 0 0 0 0
  MIRR 2 0
  DISZ INFINITY
  DIAM 0 1 0 0 1 ""
  POPS 0 0 0 0 0 0 0 0 1 1 1 1 0 0 0 0
SURF 1
  TYPE STANDARD
  CURV 0.00733839388975971 0 0 0 0
  HIDE 0 0 0 0 0 0 0 0 0 0
  MIRR 2 0
  DISZ  2.2
  GLAS  ___BLANK 1 0 1.80400 46.58 0 0 0 0 0 0
  DIAM  37.08 1 0 0 1 ""
  POPS 0 0 0 0 0 0 0 0 1 1 1 1 0 0 0 0
SURF 2
  TYPE STANDARD
  CURV 0.0151696727901579 0 0 0 0
  HIDE 0 0 0 0 0 0 0 0 0 0
  MIRR 2 0
  DISZ  9
  GLAS  ___BLANK 1 0 1.49782 82.52 0 0 0 0 0 0
  DIAM  35.68 1 0 0 1 ""
  POPS 0 0 0 0 0 0 0 0 1 1 1 1 0 0 0 0
SURF 3
  TYPE STANDARD
  CURV 0.00541660460140561 0 0 0 0
  HIDE 0 0 0 0 0 0 0 0 0 0
  MIRR 2 0
  DISZ  0.1
  DIAM  35.68 1 0 0 1 ""
  POPS 0 0 0 0 0 0 0 0 1 1 1 1 0 0 0 0
SURF 4
  TYPE STANDARD
  CURV 0.0136791233323439 0 0 0 0
  HIDE 0 0 0 0 0 0 0 0 0 0
  MIRR 2 0
  DISZ  8.9
  GLAS  ___BLANK 1 0 1.49782 82.52 0 0 0 0 0 0
  DIAM  35.6 1 0 0 1 ""
  POPS 0 0 0 0 0 0 0 0 1 1 1 1 0 0 0 0
SURF 5
  TYPE STANDARD
  CURV 0.00229872057810064 0 0 0 0
  HIDE 0 0 0 0 0 0 0 0 0 0
  MIRR 2 0
  DISZ  14.1595
  DIAM  35.6 1 0 0 1 ""
  POPS 0 0 0 0 0 0 0 0 1 1 1 1 0 0 0 0
SURF 6
  TYPE STANDARD
  CURV 0.0153644997088427 0 0 0 0
  HIDE 0 0 0 0 0 0 0 0 0 0
  MIRR 2 0
  DISZ  1.8
  GLAS  ___BLANK 1 0 1.84666 23.78 0 0 0 0 0 0
  DIAM  31.42 1 0 0 1 ""
  POPS 0 0 0 0 0 0 0 0 1 1 1 1 0 0 0 0
SURF 7
  TYPE STANDARD
  CURV 0.0192984995416606 0 0 0 0
  HIDE 0 0 0 0 0 0 0 0 0 0
  MIRR 2 0
  DISZ  1.92
  DIAM  29.87 1 0 0 1 ""
  POPS 0 0 0 0 0 0 0 0 1 1 1 1 0 0 0 0
SURF 8
  TYPE STANDARD
  CURV 0.0158187800556821 0 0 0 0
  HIDE 0 0 0 0 0 0 0 0 0 0
  MIRR 2 0
  DISZ  8.7
  GLAS  ___BLANK 1 0 1.64000 60.09 0 0 0 0 0 0
  DIAM  29.87 1 0 0 1 ""
  POPS 0 0 0 0 0 0 0 0 1 1 1 1 0 0 0 0
SURF 9
  TYPE STANDARD
  CURV 0.00056417715410877 0 0 0 0
  HIDE 0 0 0 0 0 0 0 0 0 0
  MIRR 2 0
  DISZ  2.52314
  DIAM  29.87 1 0 0 1 ""
  POPS 0 0 0 0 0 0 0 0 1 1 1 1 0 0 0 0
SURF 10
  TYPE STANDARD
  CURV -0.000937027972159025 0 0 0 0
  HIDE 0 0 0 0 0 0 0 0 0 0
  MIRR 2 0
  DISZ  1.9
  GLAS  ___BLANK 1 0 1.74100 52.67 0 0 0 0 0 0
  DIAM  18.81 1 0 0 1 ""
  POPS 0 0 0 0 0 0 0 0 1 1 1 1 0 0 0 0
SURF 11
  TYPE STANDARD
  CURV 0.0290762757942912 0 0 0 0
  HIDE 0 0 0 0 0 0 0 0 0 0
  MIRR 2 0
  DISZ  6.835
  DIAM  16.865 1 0 0 1 ""
  POPS 0 0 0 0 0 0 0 0 1 1 1 1 0 0 0 0
SURF 12
  TYPE STANDARD
  CURV -0.0161664236314314 0 0 0 0
  HIDE 0 0 0 0 0 0 0 0 0 0
  MIRR 2 0
  DISZ  1.8
  GLAS  ___BLANK 1 0 1.48749 70.41 0 0 0 0 0 0
  DIAM  16.865 1 0 0 1 ""
  POPS 0 0 0 0 0 0 0 0 1 1 1 1 0 0 0 0
SURF 13
  TYPE STANDARD
  CURV 0.0253588274078207 0 0 0 0
  HIDE 0 0 0 0 0 0 0 0 0 0
  MIRR 2 0
  DISZ  7
  GLAS  ___BLANK 1 0 1.80518 25.43 0 0 0 0 0 0
  DIAM  18.81 1 0 0 1 ""
  POPS 0 0 0 0 0 0 0 0 1 1 1 1 0 0 0 0
SURF 14
  TYPE STANDARD
  CURV -0.00447948195687065 0 0 0 0
  HIDE 0 0 0 0 0 0 0 0 0 0
  MIRR 2 0
  DISZ  1.803
  DIAM  17.66 1 0 0 1 ""
  POPS 0 0 0 0 0 0 0 0 1 1 1 1 0 0 0 0
SURF 15
  TYPE STANDARD
  CURV -0.0154974847582237 0 0 0 0
  HIDE 0 0 0 0 0 0 0 0 0 0
  MIRR 2 0
  DISZ  1.9
  GLAS  ___BLANK 1 0 1.80440 39.59 0 0 0 0 0 0
  DIAM  17.66 1 0 0 1 ""
  POPS 0 0 0 0 0 0 0 0 1 1 1 1 0 0 0 0
SURF 16
  TYPE STANDARD
  CURV 0.00114633453228462 0 0 0 0
  HIDE 0 0 0 0 0 0 0 0 0 0
  MIRR 2 0
  DISZ  34.06279
  DIAM  18.81 1 0 0 1 ""
  POPS 0 0 0 0 0 0 0 0 1 1 1 1 0 0 0 0
SURF 17
  TYPE STANDARD
  CURV -0.00166905118445886 0 0 0 0
  HIDE 0 0 0 0 0 0 0 0 0 0
  MIRR 2 0
  DISZ  3.9
  GLAS  ___BLANK 1 0 1.49782 82.52 0 0 0 0 0 0
  DIAM  19.28 1 0 0 1 ""
  POPS 0 0 0 0 0 0 0 0 1 1 1 1 0 0 0 0
SURF 18
  TYPE STANDARD
  CURV -0.0135964703562955 0 0 0 0
  HIDE 0 0 0 0 0 0 0 0 0 0
  MIRR 2 0
  DISZ  0.2
  DIAM  19.28 1 0 0 1 ""
  POPS 0 0 0 0 0 0 0 0 1 1 1 1 0 0 0 0
SURF 19
  TYPE STANDARD
  CURV 0.0106563797081218 0 0 0 0
  HIDE 0 0 0 0 0 0 0 0 0 0
  MIRR 2 0
  DISZ  8
  GLAS  ___BLANK 1 0 1.49782 82.52 0 0 0 0 0 0
  DIAM  19.2 1 0 0 1 ""
  POPS 0 0 0 0 0 0 0 0 1 1 1 1 0 0 0 0
SURF 20
  TYPE STANDARD
  CURV -0.0205901126279161 0 0 0 0
  HIDE 0 0 0 0 0 0 0 0 0 0
  MIRR 2 0
  DISZ  2
  GLAS  ___BLANK 1 0 1.74100 52.67 0 0 0 0 0 0
  DIAM  19.2 1 0 0 1 ""
  POPS 0 0 0 0 0 0 0 0 1 1 1 1 0 0 0 0
SURF 21
  TYPE STANDARD
  CURV -0.00668877082465187 0 0 0 0
  HIDE 0 0 0 0 0 0 0 0 0 0
  MIRR 2 0
  DISZ  7.92945
  DIAM  19.2 1 0 0 1 ""
  POPS 0 0 0 0 0 0 0 0 1 1 1 1 0 0 0 0
SURF 22
  STOP
  TYPE STANDARD
  CURV 0 0 0 0 0
  HIDE 0 0 0 0 0 0 0 0 0 0
  MIRR 2 0
  DISZ  1
  DIAM  18.579 1 0 0 1 ""
  POPS 0 0 0 0 0 0 0 0 1 1 1 1 0 0 0 0
SURF 23
  TYPE STANDARD
  CURV 0.0085466067834418 0 0 0 0
  HIDE 0 0 0 0 0 0 0 0 0 0
  MIRR 2 0
  DISZ  2
  GLAS  ___BLANK 1 0 1.80518 25.43 0 0 0 0 0 0
  DIAM  19.28 1 0 0 1 ""
  POPS 0 0 0 0 0 0 0 0 1 1 1 1 0 0 0 0
SURF 24
  TYPE STANDARD
  CURV 0.0223738673229668 0 0 0 0
  HIDE 0 0 0 0 0 0 0 0 0 0
  MIRR 2 0
  DISZ  7
  GLAS  ___BLANK 1 0 1.69680 55.52 0 0 0 0 0 0
  DIAM  19.28 1 0 0 1 ""
  POPS 0 0 0 0 0 0 0 0 1 1 1 1 0 0 0 0
SURF 25
  TYPE STANDARD
  CURV -0.00307361397682925 0 0 0 0
  HIDE 0 0 0 0 0 0 0 0 0 0
  MIRR 2 0
  DISZ  0.1
  DIAM  19.28 1 0 0 1 ""
  POPS 0 0 0 0 0 0 0 0 1 1 1 1 0 0 0 0
SURF 26
  TYPE STANDARD
  CURV 0.0131272012675626 0 0 0 0
  HIDE 0 0 0 0 0 0 0 0 0 0
  MIRR 2 0
  DISZ  3.5
  GLAS  ___BLANK 1 0 1.60300 65.47 0 0 0 0 0 0
  DIAM  19.28 1 0 0 1 ""
  POPS 0 0 0 0 0 0 0 0 1 1 1 1 0 0 0 0
SURF 27
  TYPE STANDARD
  CURV 0.00656492348253435 0 0 0 0
  HIDE 0 0 0 0 0 0 0 0 0 0
  MIRR 2 0
  DISZ  19
  DIAM  19.28 1 0 0 1 ""
  POPS 0 0 0 0 0 0 0 0 1 1 1 1 0 0 0 0
SURF 28
  TYPE STANDARD
  CURV 0 0 0 0 0
  HIDE 0 0 0 0 0 0 0 0 0 0
  MIRR 2 0
  DISZ  1.6216
  DIAM  16.17 1 0 0 1 ""
  POPS 0 0 0 0 0 0 0 0 1 1 1 1 0 0 0 0
SURF 29
  TYPE STANDARD
  CURV 0.00265536120081806 0 0 0 0
  HIDE 0 0 0 0 0 0 0 0 0 0
  MIRR 2 0
  DISZ  3.8
  GLAS  ___BLANK 1 0 1.84666 23.78 0 0 0 0 0 0
  DIAM  16.17 1 0 0 1 ""
  POPS 0 0 0 0 0 0 0 0 1 1 1 1 0 0 0 0
SURF 30
  TYPE STANDARD
  CURV -0.0172753342777183 0 0 0 0
  HIDE 0 0 0 0 0 0 0 0 0 0
  MIRR 2 0
  DISZ  1.5
  GLAS  ___BLANK 1 0 1.74100 52.67 0 0 0 0 0 0
  DIAM  16.17 1 0 0 1 ""
  POPS 0 0 0 0 0 0 0 0 1 1 1 1 0 0 0 0
SURF 31
  TYPE STANDARD
  CURV 0.0199828147792898 0 0 0 0
  HIDE 0 0 0 0 0 0 0 0 0 0
  MIRR 2 0
  DISZ  3.9
  DIAM  16.17 1 0 0 1 ""
  POPS 0 0 0 0 0 0 0 0 1 1 1 1 0 0 0 0
SURF 32
  TYPE STANDARD
  CURV -0.00405584246134478 0 0 0 0
  HIDE 0 0 0 0 0 0 0 0 0 0
  MIRR 2 0
  DISZ  1.5
  GLAS  ___BLANK 1 0 1.74100 52.67 0 0 0 0 0 0
  DIAM  16.17 1 0 0 1 ""
  POPS 0 0 0 0 0 0 0 0 1 1 1 1 0 0 0 0
SURF 33
  TYPE STANDARD
  CURV 0.00978044849224606 0 0 0 0
  HIDE 0 0 0 0 0 0 0 0 0 0
  MIRR 2 0
  DISZ  2.6784
  DIAM  16.17 1 0 0 1 ""
  POPS 0 0 0 0 0 0 0 0 1 1 1 1 0 0 0 0
SURF 34
  TYPE STANDARD
  CURV 0 0 0 0 0
  HIDE 0 0 0 0 0 0 0 0 0 0
  MIRR 2 0
  DISZ  4
  DIAM  16.17 1 0 0 1 ""
  POPS 0 0 0 0 0 0 0 0 1 1 1 1 0 0 0 0
SURF 35
  TYPE STANDARD
  CURV -0.00233766604149685 0 0 0 0
  HIDE 0 0 0 0 0 0 0 0 0 0
  MIRR 2 0
  DISZ  4
  GLAS  ___BLANK 1 0 1.49782 82.52 0 0 0 0 0 0
  DIAM  18.33 1 0 0 1 ""
  POPS 0 0 0 0 0 0 0 0 1 1 1 1 0 0 0 0
SURF 36
  TYPE STANDARD
  CURV -0.0171604294225859 0 0 0 0
  HIDE 0 0 0 0 0 0 0 0 0 0
  MIRR 2 0
  DISZ  0.1
  DIAM  18.33 1 0 0 1 ""
  POPS 0 0 0 0 0 0 0 0 1 1 1 1 0 0 0 0
SURF 37
  TYPE STANDARD
  CURV 0.0146817438388062 0 0 0 0
  HIDE 0 0 0 0 0 0 0 0 0 0
  MIRR 2 0
  DISZ  7.5
  GLAS  ___BLANK 1 0 1.74100 52.67 0 0 0 0 0 0
  DIAM  18.33 1 0 0 1 ""
  POPS 0 0 0 0 0 0 0 0 1 1 1 1 0 0 0 0
SURF 38
  TYPE STANDARD
  CURV -0.016627868307283 0 0 0 0
  HIDE 0 0 0 0 0 0 0 0 0 0
  MIRR 2 0
  DISZ  2
  GLAS  ___BLANK 1 0 1.84666 23.78 0 0 0 0 0 0
  DIAM  18.33 1 0 0 1 ""
  POPS 0 0 0 0 0 0 0 0 1 1 1 1 0 0 0 0
SURF 39
  TYPE STANDARD
  CURV -0.0015598477713363 0 0 0 0
  HIDE 0 0 0 0 0 0 0 0 0 0
  MIRR 2 0
  DISZ  66.21049
  DIAM  18.33 1 0 0 1 ""
  POPS 0 0 0 0 0 0 0 0 1 1 1 1 0 0 0 0
SURF 40
  TYPE STANDARD
  CURV 0.0 0 0 0 0 ""
  HIDE 0 0 0 0 0 0 0 0 0 0
  MIRR 2 0
  DISZ 0
  DIAM 21.6 1 0 0 1 ""
  POPS 0 0 0 0 0 0 0 0 1 1 1 1 0 0 0 0
TOL TOFF   0   0              0              0   0 0 0 0
MNUM 6 1
SDIA   22   1 18.579 0 0 0 1 1 1 0 0
SDIA   22   2 18.576 0 0 0 1 1 1 0 0
SDIA   22   3 18.382 0 0 0 1 1 1 0 0
SDIA   22   4 18.579 0 0 0 1 1 1 0 0
SDIA   22   5 18.576 0 0 0 1 1 1 0 0
SDIA   22   6 18.382 0 0 0 1 1 1 0 0
THIC   0   1 1.00E+10 0 0 0 1 1 1 0 0
THIC   0   2 1.00E+10 0 0 0 1 1 1 0 0
THIC   0   3 1.00E+10 0 0 0 1 1 1 0 0
THIC   0   4 1241.95660 0 0 0 1 1 1 0 0
THIC   0   5 1241.95660 0 0 0 1 1 1 0 0
THIC   0   6 1241.95660 0 0 0 1 1 1 0 0
THIC   5   1 14.15950 0 0 0 1 1 1 0 0
THIC   5   2 14.15950 0 0 0 1 1 1 0 0
THIC   5   3 14.15950 0 0 0 1 1 1 0 0
THIC   5   4 4.43994 0 0 0 1 1 1 0 0
THIC   5   5 4.43994 0 0 0 1 1 1 0 0
THIC   5   6 4.43994 0 0 0 1 1 1 0 0
THIC   9   1 2.52314 0 0 0 1 1 1 0 0
THIC   9   2 17.06549 0 0 0 1 1 1 0 0
THIC   9   3 31.15139 0 0 0 1 1 1 0 0
THIC   9   4 12.24271 0 0 0 1 1 1 0 0
THIC   9   5 26.78505 0 0 0 1 1 1 0 0
THIC   9   6 40.87095 0 0 0 1 1 1 0 0
THIC   16   1 34.06279 0 0 0 1 1 1 0 0
THIC   16   2 25.29743 0 0 0 1 1 1 0 0
THIC   16   3 1.96176 0 0 0 1 1 1 0 0
THIC   16   4 34.06279 0 0 0 1 1 1 0 0
THIC   16   5 25.29743 0 0 0 1 1 1 0 0
THIC   16   6 1.96176 0 0 0 1 1 1 0 0
THIC   21   1 7.92945 0 0 0 1 1 1 0 0
THIC   21   2 2.15247 0 0 0 1 1 1 0 0
THIC   21   3 11.40223 0 0 0 1 1 1 0 0
THIC   21   4 7.92945 0 0 0 1 1 1 0 0
THIC   21   5 2.15247 0 0 0 1 1 1 0 0
THIC   21   6 11.40223 0 0 0 1 1 1 0 0
THIC   39   1 66.21049 0 0 0 1 1 1 0 0
THIC   39   2 66.21049 0 0 0 1 1 1 0 0
THIC   39   3 66.21049 0 0 0 1 1 1 0 0
THIC   39   4 66.21049 0 0 0 1 1 1 0 0
THIC   39   5 66.21049 0 0 0 1 1 1 0 0
THIC   39   6 66.21049 0 0 0 1 1 1 0 0
