VERS 161019 507 33785
MODE SEQ
NAME US 2010/0220400 Example 2 (Nikon AF-S Nikkor 28-300mm f/3.5-5.6G ED VR)
NOTE 0 Prepared and converted by Bill Claff.
PFIL 0 0 0
LANG 0
UNIT MM X W X CM MR CPMM
FLOA
ENVD 20 1 0
GFAC 0 0
RAIM 0 2 1 1 0 1 0 0 0
SDMA 0 1 0
FTYP 3 0 3 3 0 0 0
ROPD 2
HYPR 0
PICB 1
XFLN 0 0 0 0 0 0 0 0 0 0 0 0
YFLN 0 15.12 21.6 0 0 0 0 0 0 0 0 0 0
FWGN 1 1 1 1 1 1 1 1 1 1 1 1
VDXN 0 0 0 0 0 0 0 0 0 0 0 0
VDYN 0 0 0 0 0 0 0 0 0 0 0 0
VCXN 0 0 0 0 0 0 0 0 0 0 0 0
VCYN 0 0 0 0 0 0 0 0 0 0 0 0
VANN 0 0 0 0 0 0 0 0 0 0 0 0
WAVM 1 0.4861327 1
WAVM 2 0.5875618 1
WAVM 3 0.6562725 1
WAVM 4 0.550 1
WAVM 5 0.550 1
WAVM 6 0.550 1
WAVM 7 0.550 1
WAVM 8 0.550 1
WAVM 9 0.550 1
WAVM 10 0.550 1
WAVM 11 0.550 1
WAVM 12 0.550 1
WAVM 13 0.550 1
WAVM 14 0.550 1
WAVM 15 0.550 1
WAVM 16 0.550 1
WAVM 17 0.550 1
WAVM 18 0.550 1
WAVM 19 0.550 1
WAVM 20 0.550 1
WAVM 21 0.550 1
WAVM 22 0.550 1
WAVM 23 0.550 1
WAVM 24 0.550 1
PWAV 2
POLS 1 0 1 0 0 1 0
GSTD 0 100 100 100 100 100 100 0 1 1 0 0 1 1 1 1 1 1
NSCD 100 500 0 1.0E-3 5 1.0E-6 0 0 0 0 0 0 1000000 0 2
SURF 0
  TYPE STANDARD
  CURV 0.0 0 0 0 0 ""
  HIDE 0 0 0 0 0 0 0 0 0 0
  MIRR 2 0
  DISZ INFINITY
  DIAM 0 1 0 0 1 ""
  POPS 0 0 0 0 0 0 0 0 1 1 1 1 0 0 0 0
SURF 1
  TYPE STANDARD
  CURV 0.00794478690889792 0 0 0 0
  HIDE 0 0 0 0 0 0 0 0 0 0
  MIRR 2 0
  DISZ  2
  GLAS  ___BLANK 1 0 1.90366 31.27 0 0 0 0 0 0
  DIAM  32.305 1 0 0 1 ""
  POPS 0 0 0 0 0 0 0 0 1 1 1 1 0 0 0 0
SURF 2
  TYPE STANDARD
  CURV 0.0146602630637604 0 0 0 0
  HIDE 0 0 0 0 0 0 0 0 0 0
  MIRR 2 0
  DISZ  9.3
  GLAS  ___BLANK 1 0 1.49782 82.56 0 0 0 0 0 0
  DIAM  29.93 1 0 0 1 ""
  POPS 0 0 0 0 0 0 0 0 1 1 1 1 0 0 0 0
SURF 3
  TYPE STANDARD
  CURV -0.000676335102400516 0 0 0 0
  HIDE 0 0 0 0 0 0 0 0 0 0
  MIRR 2 0
  DISZ  0.1
  DIAM  29.93 1 0 0 1 ""
  POPS 0 0 0 0 0 0 0 0 1 1 1 1 0 0 0 0
SURF 4
  TYPE STANDARD
  CURV 0.0146745478771799 0 0 0 0
  HIDE 0 0 0 0 0 0 0 0 0 0
  MIRR 2 0
  DISZ  6.7
  GLAS  ___BLANK 1 0 1.60300 65.47 0 0 0 0 0 0
  DIAM  28.24 1 0 0 1 ""
  POPS 0 0 0 0 0 0 0 0 1 1 1 1 0 0 0 0
SURF 5
  TYPE STANDARD
  CURV 0.00206402395919012 0 0 0 0
  HIDE 0 0 0 0 0 0 0 0 0 0
  MIRR 2 0
  DISZ  2.534
  DIAM  28.24 1 0 0 1 ""
  POPS 0 0 0 0 0 0 0 0 1 1 1 1 0 0 0 0
SURF 6
  TYPE EVENASPH
  CURV 0.00169245975330707 0 0 0 0
  HIDE 0 0 0 0 0 0 0 0 0 0
  MIRR 2 0
  PARM 1 0
  PARM 2 6.3564E-06
  PARM 3 -7.7687E-09
  PARM 4 -2.5438E-11
  PARM 5 1.9354E-13
  PARM 6 0
  PARM 7 0
  PARM 8 0
  DISZ  1.3
  CONI  -10.1146
  GLAS  ___BLANK 1 0 1.76546 46.73 0 0 0 0 0 0
  DIAM  16.775 1 0 0 1 ""
  POPS 0 0 0 0 0 0 0 0 1 1 1 1 0 0 0 0
SURF 7
  TYPE STANDARD
  CURV 0.0539266705134358 0 0 0 0
  HIDE 0 0 0 0 0 0 0 0 0 0
  MIRR 2 0
  DISZ  7
  DIAM  12.54 1 0 0 1 ""
  POPS 0 0 0 0 0 0 0 0 1 1 1 1 0 0 0 0
SURF 8
  TYPE STANDARD
  CURV -0.0260823524195294 0 0 0 0
  HIDE 0 0 0 0 0 0 0 0 0 0
  MIRR 2 0
  DISZ  1
  GLAS  ___BLANK 1 0 1.80400 46.58 0 0 0 0 0 0
  DIAM  12.54 1 0 0 1 ""
  POPS 0 0 0 0 0 0 0 0 1 1 1 1 0 0 0 0
SURF 9
  TYPE STANDARD
  CURV -0.00322421098720827 0 0 0 0
  HIDE 0 0 0 0 0 0 0 0 0 0
  MIRR 2 0
  DISZ  0.1
  DIAM  12.54 1 0 0 1 ""
  POPS 0 0 0 0 0 0 0 0 1 1 1 1 0 0 0 0
SURF 10
  TYPE STANDARD
  CURV 0.0262304026104497 0 0 0 0
  HIDE 0 0 0 0 0 0 0 0 0 0
  MIRR 2 0
  DISZ  4.85
  GLAS  ___BLANK 1 0 1.84666 23.78 0 0 0 0 0 0
  DIAM  11.775 1 0 0 1 ""
  POPS 0 0 0 0 0 0 0 0 1 1 1 1 0 0 0 0
SURF 11
  TYPE STANDARD
  CURV -0.0222820867619894 0 0 0 0
  HIDE 0 0 0 0 0 0 0 0 0 0
  MIRR 2 0
  DISZ  0.95
  DIAM  11.775 1 0 0 1 ""
  POPS 0 0 0 0 0 0 0 0 1 1 1 1 0 0 0 0
SURF 12
  TYPE STANDARD
  CURV -0.0339743154175443 0 0 0 0
  HIDE 0 0 0 0 0 0 0 0 0 0
  MIRR 2 0
  DISZ  1
  GLAS  ___BLANK 1 0 1.80400 46.58 0 0 0 0 0 0
  DIAM  10.96 1 0 0 1 ""
  POPS 0 0 0 0 0 0 0 0 1 1 1 1 0 0 0 0
SURF 13
  TYPE EVENASPH
  CURV 0.0100076258108679 0 0 0 0
  HIDE 0 0 0 0 0 0 0 0 0 0
  MIRR 2 0
  PARM 1 0
  PARM 2 1.0045E-06
  PARM 3 -1.4086E-08
  PARM 4 9.7383E-12
  PARM 5 0
  PARM 6 0
  PARM 7 0
  PARM 8 0
  DISZ  30.341
  CONI  0
  DIAM  10.96 1 0 0 1 ""
  POPS 0 0 0 0 0 0 0 0 1 1 1 1 0 0 0 0
SURF 14
  STOP
  TYPE STANDARD
  CURV 0 0 0 0 0
  HIDE 0 0 0 0 0 0 0 0 0 0
  MIRR 2 0
  DISZ  0.5
  DIAM  10.112 1 0 0 1 ""
  POPS 0 0 0 0 0 0 0 0 1 1 1 1 0 0 0 0
SURF 15
  TYPE STANDARD
  CURV 0.0187279946063376 0 0 0 0
  HIDE 0 0 0 0 0 0 0 0 0 0
  MIRR 2 0
  DISZ  3.4
  GLAS  ___BLANK 1 0 1.72916 54.66 0 0 0 0 0 0
  DIAM  11.58 1 0 0 1 ""
  POPS 0 0 0 0 0 0 0 0 1 1 1 1 0 0 0 0
SURF 16
  TYPE STANDARD
  CURV -0.0108574096392083 0 0 0 0
  HIDE 0 0 0 0 0 0 0 0 0 0
  MIRR 2 0
  DISZ  0.1
  DIAM  11.58 1 0 0 1 ""
  POPS 0 0 0 0 0 0 0 0 1 1 1 1 0 0 0 0
SURF 17
  TYPE STANDARD
  CURV 0.0251567264055063 0 0 0 0
  HIDE 0 0 0 0 0 0 0 0 0 0
  MIRR 2 0
  DISZ  5
  GLAS  ___BLANK 1 0 1.49782 82.56 0 0 0 0 0 0
  DIAM  11.58 1 0 0 1 ""
  POPS 0 0 0 0 0 0 0 0 1 1 1 1 0 0 0 0
SURF 18
  TYPE STANDARD
  CURV -0.02411666678725 0 0 0 0
  HIDE 0 0 0 0 0 0 0 0 0 0
  MIRR 2 0
  DISZ  1
  GLAS  ___BLANK 1 0 1.84666 23.78 0 0 0 0 0 0
  DIAM  11.29 1 0 0 1 ""
  POPS 0 0 0 0 0 0 0 0 1 1 1 1 0 0 0 0
SURF 19
  TYPE STANDARD
  CURV -0.0028033772846824 0 0 0 0
  HIDE 0 0 0 0 0 0 0 0 0 0
  MIRR 2 0
  DISZ  0.1
  DIAM  11.29 1 0 0 1 ""
  POPS 0 0 0 0 0 0 0 0 1 1 1 1 0 0 0 0
SURF 20
  TYPE STANDARD
  CURV 0.0303902410857825 0 0 0 0
  HIDE 0 0 0 0 0 0 0 0 0 0
  MIRR 2 0
  DISZ  1.4
  GLAS  ___BLANK 1 0 1.81600 46.63 0 0 0 0 0 0
  DIAM  11.29 1 0 0 1 ""
  POPS 0 0 0 0 0 0 0 0 1 1 1 1 0 0 0 0
SURF 21
  TYPE STANDARD
  CURV 0.064377820553263 0 0 0 0
  HIDE 0 0 0 0 0 0 0 0 0 0
  MIRR 2 0
  DISZ  6.6
  GLAS  ___BLANK 1 0 1.51823 58.89 0 0 0 0 0 0
  DIAM  10.75 1 0 0 1 ""
  POPS 0 0 0 0 0 0 0 0 1 1 1 1 0 0 0 0
SURF 22
  TYPE STANDARD
  CURV -0.014859878773109 0 0 0 0
  HIDE 0 0 0 0 0 0 0 0 0 0
  MIRR 2 0
  DISZ  2.961
  DIAM  10.75 1 0 0 1 ""
  POPS 0 0 0 0 0 0 0 0 1 1 1 1 0 0 0 0
SURF 23
  TYPE STANDARD
  CURV -0.0126295794855215 0 0 0 0
  HIDE 0 0 0 0 0 0 0 0 0 0
  MIRR 2 0
  DISZ  1
  GLAS  ___BLANK 1 0 1.77250 49.61 0 0 0 0 0 0
  DIAM  8.56 1 0 0 1 ""
  POPS 0 0 0 0 0 0 0 0 1 1 1 1 0 0 0 0
SURF 24
  TYPE STANDARD
  CURV 0.0629806208629605 0 0 0 0
  HIDE 0 0 0 0 0 0 0 0 0 0
  MIRR 2 0
  DISZ  3
  GLAS  ___BLANK 1 0 1.85026 32.34 0 0 0 0 0 0
  DIAM  8.35 1 0 0 1 ""
  POPS 0 0 0 0 0 0 0 0 1 1 1 1 0 0 0 0
SURF 25
  TYPE STANDARD
  CURV 0.0192870726466878 0 0 0 0
  HIDE 0 0 0 0 0 0 0 0 0 0
  MIRR 2 0
  DISZ  4.888
  DIAM  8.35 1 0 0 1 ""
  POPS 0 0 0 0 0 0 0 0 1 1 1 1 0 0 0 0
SURF 26
  TYPE STANDARD
  CURV -0.0427251830774095 0 0 0 0
  HIDE 0 0 0 0 0 0 0 0 0 0
  MIRR 2 0
  DISZ  0.19
  GLAS  ___BLANK 1 0 1.55389 38.09 0 0 0 0 0 0
  DIAM  8.9 1 0 0 1 ""
  POPS 0 0 0 0 0 0 0 0 1 1 1 1 0 0 0 0
SURF 27
  TYPE EVENASPH
  CURV -0.0427251830774095 0 0 0 0
  HIDE 0 0 0 0 0 0 0 0 0 0
  MIRR 2 0
  PARM 1 0
  PARM 2 1.5514E-06
  PARM 3 2.9382E-08
  PARM 4 1.0938E-10
  PARM 5 0
  PARM 6 0
  PARM 7 0
  PARM 8 0
  DISZ  1.2
  CONI  -1.2178
  GLAS  ___BLANK 1 0 1.72916 54.66 0 0 0 0 0 0
  DIAM  8.9 1 0 0 1 ""
  POPS 0 0 0 0 0 0 0 0 1 1 1 1 0 0 0 0
SURF 28
  TYPE STANDARD
  CURV -0.0210313788171953 0 0 0 0
  HIDE 0 0 0 0 0 0 0 0 0 0
  MIRR 2 0
  DISZ  6.152
  DIAM  8.9 1 0 0 1 ""
  POPS 0 0 0 0 0 0 0 0 1 1 1 1 0 0 0 0
SURF 29
  TYPE STANDARD
  CURV 0.0119070866216738 0 0 0 0
  HIDE 0 0 0 0 0 0 0 0 0 0
  MIRR 2 0
  DISZ  5.6
  GLAS  ___BLANK 1 0 1.56384 60.69 0 0 0 0 0 0
  DIAM  12.46 1 0 0 1 ""
  POPS 0 0 0 0 0 0 0 0 1 1 1 1 0 0 0 0
SURF 30
  TYPE STANDARD
  CURV -0.0378386559709399 0 0 0 0
  HIDE 0 0 0 0 0 0 0 0 0 0
  MIRR 2 0
  DISZ  0.3
  DIAM  12.46 1 0 0 1 ""
  POPS 0 0 0 0 0 0 0 0 1 1 1 1 0 0 0 0
SURF 31
  TYPE STANDARD
  CURV 0.0168360655461704 0 0 0 0
  HIDE 0 0 0 0 0 0 0 0 0 0
  MIRR 2 0
  DISZ  6.9
  GLAS  ___BLANK 1 0 1.54814 45.79 0 0 0 0 0 0
  DIAM  12.59 1 0 0 1 ""
  POPS 0 0 0 0 0 0 0 0 1 1 1 1 0 0 0 0
SURF 32
  TYPE STANDARD
  CURV -0.0471040434110864 0 0 0 0
  HIDE 0 0 0 0 0 0 0 0 0 0
  MIRR 2 0
  DISZ  1.1
  GLAS  ___BLANK 1 0 1.90366 31.27 0 0 0 0 0 0
  DIAM  12.59 1 0 0 1 ""
  POPS 0 0 0 0 0 0 0 0 1 1 1 1 0 0 0 0
SURF 33
  TYPE STANDARD
  CURV -0.0229403047390082 0 0 0 0
  HIDE 0 0 0 0 0 0 0 0 0 0
  MIRR 2 0
  DISZ  1.6
  DIAM  12.59 1 0 0 1 ""
  POPS 0 0 0 0 0 0 0 0 1 1 1 1 0 0 0 0
SURF 34
  TYPE STANDARD
  CURV -0.0345051274619408 0 0 0 0
  HIDE 0 0 0 0 0 0 0 0 0 0
  MIRR 2 0
  DISZ  1.3
  GLAS  ___BLANK 1 0 1.82080 42.64 0 0 0 0 0 0
  DIAM  12.52 1 0 0 1 ""
  POPS 0 0 0 0 0 0 0 0 1 1 1 1 0 0 0 0
SURF 35
  TYPE EVENASPH
  CURV -0.00731876362662303 0 0 0 0
  HIDE 0 0 0 0 0 0 0 0 0 0
  MIRR 2 0
  PARM 1 0
  PARM 2 -8.5226E-06
  PARM 3 1.1090E-08
  PARM 4 -4.8097E-11
  PARM 5 1.4630E-13
  PARM 6 0
  PARM 7 0
  PARM 8 0
  DISZ  38.422
  CONI  0
  DIAM  12.99 1 0 0 1 ""
  POPS 0 0 0 0 0 0 0 0 1 1 1 1 0 0 0 0
SURF 36
  TYPE STANDARD
  CURV 0.0 0 0 0 0 ""
  HIDE 0 0 0 0 0 0 0 0 0 0
  MIRR 2 0
  DISZ 0
  DIAM 21.6 1 0 0 1 ""
  POPS 0 0 0 0 0 0 0 0 1 1 1 1 0 0 0 0
TOL TOFF   0   0              0              0   0 0 0 0
MNUM 6 1
SDIA   14   1 10.112 0 0 0 1 1 1 0 0
SDIA   14   2 10.078 0 0 0 1 1 1 0 0
SDIA   14   3 10.5395 0 0 0 1 1 1 0 0
SDIA   14   4 10.112 0 0 0 1 1 1 0 0
SDIA   14   5 10.078 0 0 0 1 1 1 0 0
SDIA   14   6 10.5395 0 0 0 1 1 1 0 0
THIC   0   1 1.00E+10 0 0 0 1 1 1 0 0
THIC   0   2 1.00E+10 0 0 0 1 1 1 0 0
THIC   0   3 1.00E+10 0 0 0 1 1 1 0 0
THIC   0   4 812.44 0 0 0 1 1 1 0 0
THIC   0   5 2795.19 0 0 0 1 1 1 0 0
THIC   0   6 7015.03 0 0 0 1 1 1 0 0
THIC   5   1 2.534 0 0 0 1 1 1 0 0
THIC   5   2 37.442 0 0 0 1 1 1 0 0
THIC   5   3 63.214 0 0 0 1 1 1 0 0
THIC   5   4 1.853 0 0 0 1 1 1 0 0
THIC   5   5 36.751 0 0 0 1 1 1 0 0
THIC   5   6 59.870 0 0 0 1 1 1 0 0
THIC   13   1 30.341 0 0 0 1 1 1 0 0
THIC   13   2 13.263 0 0 0 1 1 1 0 0
THIC   13   3 1.585 0 0 0 1 1 1 0 0
THIC   13   4 31.022 0 0 0 1 1 1 0 0
THIC   13   5 13.954 0 0 0 1 1 1 0 0
THIC   13   6 4.929 0 0 0 1 1 1 0 0
THIC   22   1 2.961 0 0 0 1 1 1 0 0
THIC   22   2 6.701 0 0 0 1 1 1 0 0
THIC   22   3 7.803 0 0 0 1 1 1 0 0
THIC   22   4 2.961 0 0 0 1 1 1 0 0
THIC   22   5 6.701 0 0 0 1 1 1 0 0
THIC   22   6 7.803 0 0 0 1 1 1 0 0
THIC   28   1 6.152 0 0 0 1 1 1 0 0
THIC   28   2 2.412 0 0 0 1 1 1 0 0
THIC   28   3 1.310 0 0 0 1 1 1 0 0
THIC   28   4 6.152 0 0 0 1 1 1 0 0
THIC   28   5 2.412 0 0 0 1 1 1 0 0
THIC   28   6 1.310 0 0 0 1 1 1 0 0
THIC   35   1 38.422 0 0 0 1 1 1 0 0
THIC   35   2 65.896 0 0 0 1 1 1 0 0
THIC   35   3 79.261 0 0 0 1 1 1 0 0
THIC   35   4 38.22 0 0 0 1 1 1 0 0
THIC   35   5 65.81 0 0 0 1 1 1 0 0
THIC   35   6 79.15 0 0 0 1 1 1 0 0
