VERS 161019 507 33785
MODE SEQ
NAME DE 1045120 Example 1 (Leica Summilux-M 50mm F1.4)
NOTE 0 Prepared and converted by Bill Claff.
PFIL 0 0 0
LANG 0
UNIT MM X W X CM MR CPMM
FNUM 1.4 0
ENVD 20 1 0
GFAC 0 0
RAIM 0 2 1 1 0 1 0 0 0
SDMA 0 1 0
FTYP 3 0 3 3 0 0 0
ROPD 2
HYPR 0
PICB 1
XFLN 0 0 0 0 0 0 0 0 0 0 0 0
YFLN 0 15.12 21.6 0 0 0 0 0 0 0 0 0 0
FWGN 1 1 1 1 1 1 1 1 1 1 1 1
VDXN 0 0 0 0 0 0 0 0 0 0 0 0
VDYN 0 0 0 0 0 0 0 0 0 0 0 0
VCXN 0 0 0 0 0 0 0 0 0 0 0 0
VCYN 0 0 0 0 0 0 0 0 0 0 0 0
VANN 0 0 0 0 0 0 0 0 0 0 0 0
WAVM 1 0.4861327 1
WAVM 2 0.5875618 1
WAVM 3 0.6562725 1
WAVM 4 0.550 1
WAVM 5 0.550 1
WAVM 6 0.550 1
WAVM 7 0.550 1
WAVM 8 0.550 1
WAVM 9 0.550 1
WAVM 10 0.550 1
WAVM 11 0.550 1
WAVM 12 0.550 1
WAVM 13 0.550 1
WAVM 14 0.550 1
WAVM 15 0.550 1
WAVM 16 0.550 1
WAVM 17 0.550 1
WAVM 18 0.550 1
WAVM 19 0.550 1
WAVM 20 0.550 1
WAVM 21 0.550 1
WAVM 22 0.550 1
WAVM 23 0.550 1
WAVM 24 0.550 1
PWAV 2
POLS 1 0 1 0 0 1 0
GSTD 0 100 100 100 100 100 100 0 1 1 0 0 1 1 1 1 1 1
NSCD 100 500 0 1.0E-3 5 1.0E-6 0 0 0 0 0 0 1000000 0 2
SURF 0
  TYPE STANDARD
  CURV 0.0 0 0 0 0 ""
  HIDE 0 0 0 0 0 0 0 0 0 0
  MIRR 2 0
  DISZ INFINITY
  DIAM 0 1 0 0 1 ""
  POPS 0 0 0 0 0 0 0 0 1 1 1 1 0 0 0 0
SURF 1
  TYPE STANDARD
  CURV 0.0214910489781006 0 0 0 0
  HIDE 0 0 0 0 0 0 0 0 0 0
  MIRR 2 0
  DISZ  6.125
  GLAS  ___BLANK 1 0 1.79128 47.4 0 0 0 0 0 0
  DIAM  17.92 1 0 0 1 ""
  POPS 0 0 0 0 0 0 0 0 1 1 1 1 0 0 0 0
SURF 2
  TYPE STANDARD
  CURV 0.00477423821061552 0 0 0 0
  HIDE 0 0 0 0 0 0 0 0 0 0
  MIRR 2 0
  DISZ  1.25
  DIAM  17.92 1 0 0 1 ""
  POPS 0 0 0 0 0 0 0 0 1 1 1 1 0 0 0 0
SURF 3
  TYPE STANDARD
  CURV 0.0472511635599027 0 0 0 0
  HIDE 0 0 0 0 0 0 0 0 0 0
  MIRR 2 0
  DISZ  7.375
  GLAS  ___BLANK 1 0 1.64515 57.8 0 0 0 0 0 0
  DIAM  15.94 1 0 0 1 ""
  POPS 0 0 0 0 0 0 0 0 1 1 1 1 0 0 0 0
SURF 4
  TYPE STANDARD
  CURV 0.0133249830106467 0 0 0 0
  HIDE 0 0 0 0 0 0 0 0 0 0
  MIRR 2 0
  DISZ  2.798
  GLAS  ___BLANK 1 0 1.69416 30.9 0 0 0 0 0 0
  DIAM  15.94 1 0 0 1 ""
  POPS 0 0 0 0 0 0 0 0 1 1 1 1 0 0 0 0
SURF 5
  TYPE STANDARD
  CURV 0.0666622225184988 0 0 0 0
  HIDE 0 0 0 0 0 0 0 0 0 0
  MIRR 2 0
  DISZ  5.663
  DIAM  11.07 1 0 0 1 ""
  POPS 0 0 0 0 0 0 0 0 1 1 1 1 0 0 0 0
SURF 6
  STOP
  TYPE STANDARD
  CURV 0 0 0 0 0
  HIDE 0 0 0 0 0 0 0 0 0 0
  MIRR 2 0
  DISZ  4.462
  DIAM  10.8785 1 0 0 1 ""
  POPS 0 0 0 0 0 0 0 0 1 1 1 1 0 0 0 0
SURF 7
  TYPE STANDARD
  CURV -0.0515769657271063 0 0 0 0
  HIDE 0 0 0 0 0 0 0 0 0 0
  MIRR 2 0
  DISZ  2.029
  GLAS  ___BLANK 1 0 1.67158 32.9 0 0 0 0 0 0
  DIAM  10.65 1 0 0 1 ""
  POPS 0 0 0 0 0 0 0 0 1 1 1 1 0 0 0 0
SURF 8
  TYPE STANDARD
  CURV 0.0245004961350467 0 0 0 0
  HIDE 0 0 0 0 0 0 0 0 0 0
  MIRR 2 0
  DISZ  7.625
  GLAS  ___BLANK 1 0 1.74793 44.7 0 0 0 0 0 0
  DIAM  12.245 1 0 0 1 ""
  POPS 0 0 0 0 0 0 0 0 1 1 1 1 0 0 0 0
SURF 9
  TYPE STANDARD
  CURV -0.0339645070900909 0 0 0 0
  HIDE 0 0 0 0 0 0 0 0 0 0
  MIRR 2 0
  DISZ  0.25
  DIAM  12.245 1 0 0 1 ""
  POPS 0 0 0 0 0 0 0 0 1 1 1 1 0 0 0 0
SURF 10
  TYPE STANDARD
  CURV 0.00342942584552494 0 0 0 0
  HIDE 0 0 0 0 0 0 0 0 0 0
  MIRR 2 0
  DISZ  3.375
  GLAS  ___BLANK 1 0 1.79128 47.4 0 0 0 0 0 0
  DIAM  13.63 1 0 0 1 ""
  POPS 0 0 0 0 0 0 0 0 1 1 1 1 0 0 0 0
SURF 11
  TYPE STANDARD
  CURV -0.0113314447592068 0 0 0 0
  HIDE 0 0 0 0 0 0 0 0 0 0
  MIRR 2 0
  DISZ  0.25
  DIAM  13.63 1 0 0 1 ""
  POPS 0 0 0 0 0 0 0 0 1 1 1 1 0 0 0 0
SURF 12
  TYPE STANDARD
  CURV 0.00666120447899389 0 0 0 0
  HIDE 0 0 0 0 0 0 0 0 0 0
  MIRR 2 0
  DISZ  2.548
  GLAS  ___BLANK 1 0 1.79128 47.4 0 0 0 0 0 0
  DIAM  14.66 1 0 0 1 ""
  POPS 0 0 0 0 0 0 0 0 1 1 1 1 0 0 0 0
SURF 13
  TYPE STANDARD
  CURV -0.00498970872575313 0 0 0 0
  HIDE 0 0 0 0 0 0 0 0 0 0
  MIRR 2 0
  DISZ  27.21
  DIAM  14.66 1 0 0 1 ""
  POPS 0 0 0 0 0 0 0 0 1 1 1 1 0 0 0 0
SURF 14
  TYPE STANDARD
  CURV 0.0 0 0 0 0 ""
  HIDE 0 0 0 0 0 0 0 0 0 0
  MIRR 2 0
  DISZ 0
  DIAM 21.6 1 0 0 1 ""
  POPS 0 0 0 0 0 0 0 0 1 1 1 1 0 0 0 0
TOL TOFF   0   0              0              0   0 0 0 0
MNUM 1 1
