VERS 161019 507 33785
MODE SEQ
NAME WO 2021/200206 Example 2 (Sony FE 12-24mm F2.8 GM)
NOTE 0 Prepared and converted by Bill Claff.
PFIL 0 0 0
LANG 0
UNIT MM X W X CM MR CPMM
FLOA
ENVD 20 1 0
GFAC 0 0
RAIM 0 2 1 1 0 1 0 0 0
SDMA 0 1 0
FTYP 3 0 3 3 0 0 0
ROPD 2
HYPR 0
PICB 1
XFLN 0 0 0 0 0 0 0 0 0 0 0 0
YFLN 0 15.12 21.6 0 0 0 0 0 0 0 0 0 0
FWGN 1 1 1 1 1 1 1 1 1 1 1 1
VDXN 0 0 0 0 0 0 0 0 0 0 0 0
VDYN 0 0 0 0 0 0 0 0 0 0 0 0
VCXN 0 0 0 0 0 0 0 0 0 0 0 0
VCYN 0 0 0 0 0 0 0 0 0 0 0 0
VANN 0 0 0 0 0 0 0 0 0 0 0 0
WAVM 1 0.4861327 1
WAVM 2 0.5875618 1
WAVM 3 0.6562725 1
WAVM 4 0.550 1
WAVM 5 0.550 1
WAVM 6 0.550 1
WAVM 7 0.550 1
WAVM 8 0.550 1
WAVM 9 0.550 1
WAVM 10 0.550 1
WAVM 11 0.550 1
WAVM 12 0.550 1
WAVM 13 0.550 1
WAVM 14 0.550 1
WAVM 15 0.550 1
WAVM 16 0.550 1
WAVM 17 0.550 1
WAVM 18 0.550 1
WAVM 19 0.550 1
WAVM 20 0.550 1
WAVM 21 0.550 1
WAVM 22 0.550 1
WAVM 23 0.550 1
WAVM 24 0.550 1
PWAV 2
POLS 1 0 1 0 0 1 0
GSTD 0 100 100 100 100 100 100 0 1 1 0 0 1 1 1 1 1 1
NSCD 100 500 0 1.0E-3 5 1.0E-6 0 0 0 0 0 0 1000000 0 2
SURF 0
  TYPE STANDARD
  CURV 0.0 0 0 0 0 ""
  HIDE 0 0 0 0 0 0 0 0 0 0
  MIRR 2 0
  DISZ INFINITY
  DIAM 0 1 0 0 1 ""
  POPS 0 0 0 0 0 0 0 0 1 1 1 1 0 0 0 0
SURF 1
  TYPE EVENASPH
  CURV 0.0122168739462946 0 0 0 0
  HIDE 0 0 0 0 0 0 0 0 0 0
  MIRR 2 0
  PARM 1 0
  PARM 2 -1.65355E-07
  PARM 3 1.17463E-09
  PARM 4 -3.83525E-13
  PARM 5 7.63751E-17
  PARM 6 3.53834E-20
  PARM 7 0
  PARM 8 0
  DISZ  3.2
  CONI  0.0116003
  GLAS  ___BLANK 1 0 1.58547 59.5 0 0 0 0 0 0
  DIAM  38.98 1 0 0 1 ""
  POPS 0 0 0 0 0 0 0 0 1 1 1 1 0 0 0 0
SURF 2
  TYPE EVENASPH
  CURV 0.0588235294117647 0 0 0 0
  HIDE 0 0 0 0 0 0 0 0 0 0
  MIRR 2 0
  PARM 1 0
  PARM 2 -2.70493E-06
  PARM 3 -1.00491E-08
  PARM 4 4.57727E-12
  PARM 5 -1.85805E-14
  PARM 6 -5.01144E-18
  PARM 7 0
  PARM 8 0
  DISZ  16.4
  CONI  -0.667543
  DIAM  24.845 1 0 0 1 ""
  POPS 0 0 0 0 0 0 0 0 1 1 1 1 0 0 0 0
SURF 3
  TYPE EVENASPH
  CURV 0.018688444934497 0 0 0 0
  HIDE 0 0 0 0 0 0 0 0 0 0
  MIRR 2 0
  PARM 1 0
  PARM 2 -1.90031E-05
  PARM 3 3.67240E-08
  PARM 4 -3.69202E-11
  PARM 5 1.47478E-14
  PARM 6 2.86478E-19
  PARM 7 0
  PARM 8 0
  DISZ  2.1
  CONI  0.00639569
  GLAS  ___BLANK 1 0 1.77173 49.2 0 0 0 0 0 0
  DIAM  23.775 1 0 0 1 ""
  POPS 0 0 0 0 0 0 0 0 1 1 1 1 0 0 0 0
SURF 4
  TYPE EVENASPH
  CURV 0.0414524954402255 0 0 0 0
  HIDE 0 0 0 0 0 0 0 0 0 0
  MIRR 2 0
  PARM 1 0
  PARM 2 -1.52241E-05
  PARM 3 4.28831E-08
  PARM 4 3.97935E-11
  PARM 5 -2.05537E-13
  PARM 6 4.71911E-16
  PARM 7 0
  PARM 8 0
  DISZ  10.41
  CONI  0.147359
  DIAM  18.145 1 0 0 1 ""
  POPS 0 0 0 0 0 0 0 0 1 1 1 1 0 0 0 0
SURF 5
  TYPE STANDARD
  CURV -0.0026385293892596 0 0 0 0
  HIDE 0 0 0 0 0 0 0 0 0 0
  MIRR 2 0
  DISZ  1.65
  GLAS  ___BLANK 1 0 1.55206 75.5 0 0 0 0 0 0
  DIAM  17.73 1 0 0 1 ""
  POPS 0 0 0 0 0 0 0 0 1 1 1 1 0 0 0 0
SURF 6
  TYPE STANDARD
  CURV 0.0177664072771204 0 0 0 0
  HIDE 0 0 0 0 0 0 0 0 0 0
  MIRR 2 0
  DISZ  4.12
  DIAM  16.87 1 0 0 1 ""
  POPS 0 0 0 0 0 0 0 0 1 1 1 1 0 0 0 0
SURF 7
  TYPE STANDARD
  CURV -0.00810845874416191 0 0 0 0
  HIDE 0 0 0 0 0 0 0 0 0 0
  MIRR 2 0
  DISZ  1.55
  GLAS  ___BLANK 1 0 1.43810 95.1 0 0 0 0 0 0
  DIAM  16.825 1 0 0 1 ""
  POPS 0 0 0 0 0 0 0 0 1 1 1 1 0 0 0 0
SURF 8
  TYPE STANDARD
  CURV 0.0118361404713151 0 0 0 0
  HIDE 0 0 0 0 0 0 0 0 0 0
  MIRR 2 0
  DISZ  0.2
  DIAM  16.66 1 0 0 1 ""
  POPS 0 0 0 0 0 0 0 0 1 1 1 1 0 0 0 0
SURF 9
  TYPE STANDARD
  CURV 0.0206253609438165 0 0 0 0
  HIDE 0 0 0 0 0 0 0 0 0 0
  MIRR 2 0
  DISZ  4.58
  GLAS  ___BLANK 1 0 1.85649 32.3 0 0 0 0 0 0
  DIAM  16.71 1 0 0 1 ""
  POPS 0 0 0 0 0 0 0 0 1 1 1 1 0 0 0 0
SURF 10
  TYPE STANDARD
  CURV -0.00146902199860443 0 0 0 0
  HIDE 0 0 0 0 0 0 0 0 0 0
  MIRR 2 0
  DISZ  19.75
  DIAM  16.5 1 0 0 1 ""
  POPS 0 0 0 0 0 0 0 0 1 1 1 1 0 0 0 0
SURF 11
  TYPE STANDARD
  CURV 0 0 0 0 0
  HIDE 0 0 0 0 0 0 0 0 0 0
  MIRR 2 0
  DISZ  10.16
  DIAM  11.15 1 0 0 1 ""
  POPS 0 0 0 0 0 0 0 0 1 1 1 1 0 0 0 0
SURF 12
  TYPE STANDARD
  CURV 0.0322882696716283 0 0 0 0
  HIDE 0 0 0 0 0 0 0 0 0 0
  MIRR 2 0
  DISZ  1.2
  GLAS  ___BLANK 1 0 1.93024 24.0 0 0 0 0 0 0
  DIAM  12.345 1 0 0 1 ""
  POPS 0 0 0 0 0 0 0 0 1 1 1 1 0 0 0 0
SURF 13
  TYPE STANDARD
  CURV 0.0555864369093941 0 0 0 0
  HIDE 0 0 0 0 0 0 0 0 0 0
  MIRR 2 0
  DISZ  6.78
  GLAS  ___BLANK 1 0 1.67764 32.2 0 0 0 0 0 0
  DIAM  11.935 1 0 0 1 ""
  POPS 0 0 0 0 0 0 0 0 1 1 1 1 0 0 0 0
SURF 14
  TYPE STANDARD
  CURV -0.00170151077141394 0 0 0 0
  HIDE 0 0 0 0 0 0 0 0 0 0
  MIRR 2 0
  DISZ  9.31
  DIAM  11.905 1 0 0 1 ""
  POPS 0 0 0 0 0 0 0 0 1 1 1 1 0 0 0 0
SURF 15
  STOP
  TYPE STANDARD
  CURV 0 0 0 0 0
  HIDE 0 0 0 0 0 0 0 0 0 0
  MIRR 2 0
  DISZ  1
  DIAM  8.115 1 0 0 1 ""
  POPS 0 0 0 0 0 0 0 0 1 1 1 1 0 0 0 0
SURF 16
  TYPE STANDARD
  CURV 0.0186115764005211 0 0 0 0
  HIDE 0 0 0 0 0 0 0 0 0 0
  MIRR 2 0
  DISZ  1.2
  GLAS  ___BLANK 1 0 1.96073 32.3 0 0 0 0 0 0
  DIAM  11.8 1 0 0 1 ""
  POPS 0 0 0 0 0 0 0 0 1 1 1 1 0 0 0 0
SURF 17
  TYPE STANDARD
  CURV 0.0357283218407231 0 0 0 0
  HIDE 0 0 0 0 0 0 0 0 0 0
  MIRR 2 0
  DISZ  0.25
  DIAM  11.54 1 0 0 1 ""
  POPS 0 0 0 0 0 0 0 0 1 1 1 1 0 0 0 0
SURF 18
  TYPE EVENASPH
  CURV 0.0514641552158921 0 0 0 0
  HIDE 0 0 0 0 0 0 0 0 0 0
  MIRR 2 0
  PARM 1 0
  PARM 2 -1.01036E-05
  PARM 3 -3.18092E-08
  PARM 4 -6.54421E-11
  PARM 5 1.26110E-13
  PARM 6 0
  PARM 7 0
  PARM 8 0
  DISZ  4.45
  CONI  0
  GLAS  ___BLANK 1 0 1.59412 67.0 0 0 0 0 0 0
  DIAM  11.955 1 0 0 1 ""
  POPS 0 0 0 0 0 0 0 0 1 1 1 1 0 0 0 0
SURF 19
  TYPE EVENASPH
  CURV 0.0204549173621339 0 0 0 0
  HIDE 0 0 0 0 0 0 0 0 0 0
  MIRR 2 0
  PARM 1 0
  PARM 2 -4.54563E-06
  PARM 3 -2.77470E-08
  PARM 4 -6.43216E-11
  PARM 5 3.71318E-13
  PARM 6 0
  PARM 7 0
  PARM 8 0
  DISZ  3.2
  CONI  0
  DIAM  11.765 1 0 0 1 ""
  POPS 0 0 0 0 0 0 0 0 1 1 1 1 0 0 0 0
SURF 20
  TYPE STANDARD
  CURV 0.0444148345547413 0 0 0 0
  HIDE 0 0 0 0 0 0 0 0 0 0
  MIRR 2 0
  DISZ  1.3
  GLAS  ___BLANK 1 0 1.96073 32.3 0 0 0 0 0 0
  DIAM  11.63 1 0 0 1 ""
  POPS 0 0 0 0 0 0 0 0 1 1 1 1 0 0 0 0
SURF 21
  TYPE STANDARD
  CURV 0.0748446972531996 0 0 0 0
  HIDE 0 0 0 0 0 0 0 0 0 0
  MIRR 2 0
  DISZ  9.57
  GLAS  ___BLANK 1 0 1.55206 75.5 0 0 0 0 0 0
  DIAM  10.645 1 0 0 1 ""
  POPS 0 0 0 0 0 0 0 0 1 1 1 1 0 0 0 0
SURF 22
  TYPE STANDARD
  CURV -0.0173891874032726 0 0 0 0
  HIDE 0 0 0 0 0 0 0 0 0 0
  MIRR 2 0
  DISZ  2.97
  DIAM  10.45 1 0 0 1 ""
  POPS 0 0 0 0 0 0 0 0 1 1 1 1 0 0 0 0
SURF 23
  TYPE STANDARD
  CURV -0.0181940578207158 0 0 0 0
  HIDE 0 0 0 0 0 0 0 0 0 0
  MIRR 2 0
  DISZ  4.21
  GLAS  ___BLANK 1 0 1.90314 20.4 0 0 0 0 0 0
  DIAM  9.82 1 0 0 1 ""
  POPS 0 0 0 0 0 0 0 0 1 1 1 1 0 0 0 0
SURF 24
  TYPE STANDARD
  CURV -0.0610836234805449 0 0 0 0
  HIDE 0 0 0 0 0 0 0 0 0 0
  MIRR 2 0
  DISZ  1.25
  GLAS  ___BLANK 1 0 1.96073 32.3 0 0 0 0 0 0
  DIAM  10.1 1 0 0 1 ""
  POPS 0 0 0 0 0 0 0 0 1 1 1 1 0 0 0 0
SURF 25
  TYPE STANDARD
  CURV -0.0182023371800939 0 0 0 0
  HIDE 0 0 0 0 0 0 0 0 0 0
  MIRR 2 0
  DISZ  0.25
  DIAM  10.8 1 0 0 1 ""
  POPS 0 0 0 0 0 0 0 0 1 1 1 1 0 0 0 0
SURF 26
  TYPE STANDARD
  CURV 0.0181682745589651 0 0 0 0
  HIDE 0 0 0 0 0 0 0 0 0 0
  MIRR 2 0
  DISZ  6.67
  GLAS  ___BLANK 1 0 1.43810 95.1 0 0 0 0 0 0
  DIAM  11.245 1 0 0 1 ""
  POPS 0 0 0 0 0 0 0 0 1 1 1 1 0 0 0 0
SURF 27
  TYPE STANDARD
  CURV -0.0486997175416383 0 0 0 0
  HIDE 0 0 0 0 0 0 0 0 0 0
  MIRR 2 0
  DISZ  0.26
  DIAM  11.365 1 0 0 1 ""
  POPS 0 0 0 0 0 0 0 0 1 1 1 1 0 0 0 0
SURF 28
  TYPE STANDARD
  CURV -0.0349406009783368 0 0 0 0
  HIDE 0 0 0 0 0 0 0 0 0 0
  MIRR 2 0
  DISZ  1.15
  GLAS  ___BLANK 1 0 2.00912 29.1 0 0 0 0 0 0
  DIAM  11.03 1 0 0 1 ""
  POPS 0 0 0 0 0 0 0 0 1 1 1 1 0 0 0 0
SURF 29
  TYPE STANDARD
  CURV -0.00349342537344717 0 0 0 0
  HIDE 0 0 0 0 0 0 0 0 0 0
  MIRR 2 0
  DISZ  2.39
  DIAM  11.35 1 0 0 1 ""
  POPS 0 0 0 0 0 0 0 0 1 1 1 1 0 0 0 0
SURF 30
  TYPE EVENASPH
  CURV -0.0234082397003745 0 0 0 0
  HIDE 0 0 0 0 0 0 0 0 0 0
  MIRR 2 0
  PARM 1 0
  PARM 2 -5.01451E-05
  PARM 3 7.60009E-08
  PARM 4 -1.12942E-10
  PARM 5 -1.79084E-12
  PARM 6 0
  PARM 7 0
  PARM 8 0
  DISZ  1.42
  CONI  0
  GLAS  ___BLANK 1 0 1.85639 40.1 0 0 0 0 0 0
  DIAM  11.4 1 0 0 1 ""
  POPS 0 0 0 0 0 0 0 0 1 1 1 1 0 0 0 0
SURF 31
  TYPE EVENASPH
  CURV -0.00513420820241102 0 0 0 0
  HIDE 0 0 0 0 0 0 0 0 0 0
  MIRR 2 0
  PARM 1 0
  PARM 2 -2.10249E-05
  PARM 3 1.44746E-07
  PARM 4 -2.43205E-10
  PARM 5 -1.87381E-13
  PARM 6 0
  PARM 7 0
  PARM 8 0
  DISZ  0.2
  CONI  0
  DIAM  12.5 1 0 0 1 ""
  POPS 0 0 0 0 0 0 0 0 1 1 1 1 0 0 0 0
SURF 32
  TYPE STANDARD
  CURV 0.01 0 0 0 0
  HIDE 0 0 0 0 0 0 0 0 0 0
  MIRR 2 0
  DISZ  2.5
  GLAS  ___BLANK 1 0 1.49845 81.6 0 0 0 0 0 0
  DIAM  13.55 1 0 0 1 ""
  POPS 0 0 0 0 0 0 0 0 1 1 1 1 0 0 0 0
SURF 33
  TYPE STANDARD
  CURV -0.00295795853533725 0 0 0 0
  HIDE 0 0 0 0 0 0 0 0 0 0
  MIRR 2 0
  DISZ  15.5
  DIAM  13.965 1 0 0 1 ""
  POPS 0 0 0 0 0 0 0 0 1 1 1 1 0 0 0 0
SURF 34
  TYPE STANDARD
  CURV 0.0 0 0 0 0 ""
  HIDE 0 0 0 0 0 0 0 0 0 0
  MIRR 2 0
  DISZ 0
  DIAM 21.6 1 0 0 1 ""
  POPS 0 0 0 0 0 0 0 0 1 1 1 1 0 0 0 0
TOL TOFF   0   0              0              0   0 0 0 0
MNUM 6 1
SDIA   15   1 8.115 0 0 0 1 1 1 0 0
SDIA   15   2 9.565 0 0 0 1 1 1 0 0
SDIA   15   3 11.815 0 0 0 1 1 1 0 0
SDIA   15   4 8.115 0 0 0 1 1 1 0 0
SDIA   15   5 9.565 0 0 0 1 1 1 0 0
SDIA   15   6 11.815 0 0 0 1 1 1 0 0
THIC   0   1 1.00E+10 0 0 0 1 1 1 0 0
THIC   0   2 1.00E+10 0 0 0 1 1 1 0 0
THIC   0   3 1.00E+10 0 0 0 1 1 1 0 0
THIC   0   4 280 0 0 0 1 1 1 0 0
THIC   0   5 280 0 0 0 1 1 1 0 0
THIC   0   6 280 0 0 0 1 1 1 0 0
THIC   10   1 19.75 0 0 0 1 1 1 0 0
THIC   10   2 11.56 0 0 0 1 1 1 0 0
THIC   10   3 1.30 0 0 0 1 1 1 0 0
THIC   10   4 19.75 0 0 0 1 1 1 0 0
THIC   10   5 11.56 0 0 0 1 1 1 0 0
THIC   10   6 1.30 0 0 0 1 1 1 0 0
THIC   11   1 10.16 0 0 0 1 1 1 0 0
THIC   11   2 3.28 0 0 0 1 1 1 0 0
THIC   11   3 3.00 0 0 0 1 1 1 0 0
THIC   11   4 13.26 0 0 0 1 1 1 0 0
THIC   11   5 6.84 0 0 0 1 1 1 0 0
THIC   11   6 6.40 0 0 0 1 1 1 0 0
THIC   14   1 9.31 0 0 0 1 1 1 0 0
THIC   14   2 9.03 0 0 0 1 1 1 0 0
THIC   14   3 7.34 0 0 0 1 1 1 0 0
THIC   14   4 6.21 0 0 0 1 1 1 0 0
THIC   14   5 5.46 0 0 0 1 1 1 0 0
THIC   14   6 3.94 0 0 0 1 1 1 0 0
THIC   19   1 3.20 0 0 0 1 1 1 0 0
THIC   19   2 2.34 0 0 0 1 1 1 0 0
THIC   19   3 2.00 0 0 0 1 1 1 0 0
THIC   19   4 3.17 0 0 0 1 1 1 0 0
THIC   19   5 2.69 0 0 0 1 1 1 0 0
THIC   19   6 2.52 0 0 0 1 1 1 0 0
THIC   22   1 2.97 0 0 0 1 1 1 0 0
THIC   22   2 3.83 0 0 0 1 1 1 0 0
THIC   22   3 4.17 0 0 0 1 1 1 0 0
THIC   22   4 3.00 0 0 0 1 1 1 0 0
THIC   22   5 3.48 0 0 0 1 1 1 0 0
THIC   22   6 3.65 0 0 0 1 1 1 0 0
THIC   33   1 15.50 0 0 0 1 1 1 0 0
THIC   33   2 21.73 0 0 0 1 1 1 0 0
THIC   33   3 31.21 0 0 0 1 1 1 0 0
THIC   33   4 15.50 0 0 0 1 1 1 0 0
THIC   33   5 21.73 0 0 0 1 1 1 0 0
THIC   33   6 31.21 0 0 0 1 1 1 0 0
