VERS 161019 507 33785
MODE SEQ
NAME JP 2014-048480 Example 2 (Sigma 17-70mm F2.8-4 DC Macro OS HSM C)
NOTE 0 Prepared and converted by Bill Claff.
PFIL 0 0 0
LANG 0
UNIT MM X W X CM MR CPMM
FNUM 2.9 0
ENVD 20 1 0
GFAC 0 0
RAIM 0 2 1 1 0 1 0 0 0
SDMA 0 1 0
FTYP 3 0 3 3 0 0 0
ROPD 2
HYPR 0
PICB 1
XFLN 0 0 0 0 0 0 0 0 0 0 0 0
YFLN 0 9.94 14.2 0 0 0 0 0 0 0 0 0 0
FWGN 1 1 1 1 1 1 1 1 1 1 1 1
VDXN 0 0 0 0 0 0 0 0 0 0 0 0
VDYN 0 0 0 0 0 0 0 0 0 0 0 0
VCXN 0 0 0 0 0 0 0 0 0 0 0 0
VCYN 0 0 0 0 0 0 0 0 0 0 0 0
VANN 0 0 0 0 0 0 0 0 0 0 0 0
WAVM 1 0.4861327 1
WAVM 2 0.5875618 1
WAVM 3 0.6562725 1
WAVM 4 0.550 1
WAVM 5 0.550 1
WAVM 6 0.550 1
WAVM 7 0.550 1
WAVM 8 0.550 1
WAVM 9 0.550 1
WAVM 10 0.550 1
WAVM 11 0.550 1
WAVM 12 0.550 1
WAVM 13 0.550 1
WAVM 14 0.550 1
WAVM 15 0.550 1
WAVM 16 0.550 1
WAVM 17 0.550 1
WAVM 18 0.550 1
WAVM 19 0.550 1
WAVM 20 0.550 1
WAVM 21 0.550 1
WAVM 22 0.550 1
WAVM 23 0.550 1
WAVM 24 0.550 1
PWAV 2
POLS 1 0 1 0 0 1 0
GSTD 0 100 100 100 100 100 100 0 1 1 0 0 1 1 1 1 1 1
NSCD 100 500 0 1.0E-3 5 1.0E-6 0 0 0 0 0 0 1000000 0 2
SURF 0
  TYPE STANDARD
  CURV 0.0 0 0 0 0 ""
  HIDE 0 0 0 0 0 0 0 0 0 0
  MIRR 2 0
  DISZ INFINITY
  DIAM 0 1 0 0 1 ""
  POPS 0 0 0 0 0 0 0 0 1 1 1 1 0 0 0 0
SURF 1
  TYPE STANDARD
  CURV 0.00694844945350445 0 0 0 0
  HIDE 0 0 0 0 0 0 0 0 0 0
  MIRR 2 0
  DISZ  1.6
  GLAS  ___BLANK 1 0 1.846664 23.78 0 0 0 0 0 0
  DIAM  29.84 1 0 0 1 ""
  POPS 0 0 0 0 0 0 0 0 1 1 1 1 0 0 0 0
SURF 2
  TYPE STANDARD
  CURV 0.015659990290806 0 0 0 0
  HIDE 0 0 0 0 0 0 0 0 0 0
  MIRR 2 0
  DISZ  5.891
  GLAS  ___BLANK 1 0 1.729160 54.67 0 0 0 0 0 0
  DIAM  28.89 1 0 0 1 ""
  POPS 0 0 0 0 0 0 0 0 1 1 1 1 0 0 0 0
SURF 3
  TYPE STANDARD
  CURV 0.00343746562534375 0 0 0 0
  HIDE 0 0 0 0 0 0 0 0 0 0
  MIRR 2 0
  DISZ  0.15
  DIAM  28.89 1 0 0 1 ""
  POPS 0 0 0 0 0 0 0 0 1 1 1 1 0 0 0 0
SURF 4
  TYPE STANDARD
  CURV 0.0182939099573752 0 0 0 0
  HIDE 0 0 0 0 0 0 0 0 0 0
  MIRR 2 0
  DISZ  5.059
  GLAS  ___BLANK 1 0 1.772500 49.62 0 0 0 0 0 0
  DIAM  24.93 1 0 0 1 ""
  POPS 0 0 0 0 0 0 0 0 1 1 1 1 0 0 0 0
SURF 5
  TYPE STANDARD
  CURV 0.00623052959501558 0 0 0 0
  HIDE 0 0 0 0 0 0 0 0 0 0
  MIRR 2 0
  DISZ  3.7
  DIAM  23.97 1 0 0 1 ""
  POPS 0 0 0 0 0 0 0 0 1 1 1 1 0 0 0 0
SURF 6
  TYPE EVENASPH
  CURV 0.0131675971768672 0 0 0 0
  HIDE 0 0 0 0 0 0 0 0 0 0
  MIRR 2 0
  PARM 1 0
  PARM 2 1.69730E-05
  PARM 3 -9.83830E-09
  PARM 4 -1.16520E-10
  PARM 5 9.08050E-13
  PARM 6 0
  PARM 7 0
  PARM 8 0
  DISZ  0.13
  CONI  0
  GLAS  ___BLANK 1 0 1.518400 52.10 0 0 0 0 0 0
  DIAM  13.965 1 0 0 1 ""
  POPS 0 0 0 0 0 0 0 0 1 1 1 1 0 0 0 0
SURF 7
  TYPE STANDARD
  CURV 0.018407053582933 0 0 0 0
  HIDE 0 0 0 0 0 0 0 0 0 0
  MIRR 2 0
  DISZ  1
  GLAS  ___BLANK 1 0 1.883000 40.80 0 0 0 0 0 0
  DIAM  13.965 1 0 0 1 ""
  POPS 0 0 0 0 0 0 0 0 1 1 1 1 0 0 0 0
SURF 8
  TYPE STANDARD
  CURV 0.0781372089388967 0 0 0 0
  HIDE 0 0 0 0 0 0 0 0 0 0
  MIRR 2 0
  DISZ  6.237
  DIAM  9.77 1 0 0 1 ""
  POPS 0 0 0 0 0 0 0 0 1 1 1 1 0 0 0 0
SURF 9
  TYPE STANDARD
  CURV -0.0315945783703517 0 0 0 0
  HIDE 0 0 0 0 0 0 0 0 0 0
  MIRR 2 0
  DISZ  0.9
  GLAS  ___BLANK 1 0 1.883000 40.80 0 0 0 0 0 0
  DIAM  9.77 1 0 0 1 ""
  POPS 0 0 0 0 0 0 0 0 1 1 1 1 0 0 0 0
SURF 10
  TYPE STANDARD
  CURV 0.0169623774468229 0 0 0 0
  HIDE 0 0 0 0 0 0 0 0 0 0
  MIRR 2 0
  DISZ  0.376
  DIAM  10.45 1 0 0 1 ""
  POPS 0 0 0 0 0 0 0 0 1 1 1 1 0 0 0 0
SURF 11
  TYPE STANDARD
  CURV 0.032155374770893 0 0 0 0
  HIDE 0 0 0 0 0 0 0 0 0 0
  MIRR 2 0
  DISZ  5.627
  GLAS  ___BLANK 1 0 1.846664 23.78 0 0 0 0 0 0
  DIAM  10.11 1 0 0 1 ""
  POPS 0 0 0 0 0 0 0 0 1 1 1 1 0 0 0 0
SURF 12
  TYPE STANDARD
  CURV -0.0342254774454104 0 0 0 0
  HIDE 0 0 0 0 0 0 0 0 0 0
  MIRR 2 0
  DISZ  0.786
  DIAM  10.11 1 0 0 1 ""
  POPS 0 0 0 0 0 0 0 0 1 1 1 1 0 0 0 0
SURF 13
  TYPE STANDARD
  CURV -0.0523505392105539 0 0 0 0
  HIDE 0 0 0 0 0 0 0 0 0 0
  MIRR 2 0
  DISZ  0.9
  GLAS  ___BLANK 1 0 1.713000 53.94 0 0 0 0 0 0
  DIAM  8.48 1 0 0 1 ""
  POPS 0 0 0 0 0 0 0 0 1 1 1 1 0 0 0 0
SURF 14
  TYPE STANDARD
  CURV -0.00554120997861093 0 0 0 0
  HIDE 0 0 0 0 0 0 0 0 0 0
  MIRR 2 0
  DISZ  16.326
  DIAM  9.43 1 0 0 1 ""
  POPS 0 0 0 0 0 0 0 0 1 1 1 1 0 0 0 0
SURF 15
  STOP
  TYPE STANDARD
  CURV 0 0 0 0 0
  HIDE 0 0 0 0 0 0 0 0 0 0
  MIRR 2 0
  DISZ  1.7
  DIAM  7.3105 1 0 0 1 ""
  POPS 0 0 0 0 0 0 0 0 1 1 1 1 0 0 0 0
SURF 16
  TYPE STANDARD
  CURV 0.0199179380950484 0 0 0 0
  HIDE 0 0 0 0 0 0 0 0 0 0
  MIRR 2 0
  DISZ  3.482
  GLAS  ___BLANK 1 0 1.723417 37.99 0 0 0 0 0 0
  DIAM  8.82 1 0 0 1 ""
  POPS 0 0 0 0 0 0 0 0 1 1 1 1 0 0 0 0
SURF 17
  TYPE STANDARD
  CURV -0.0317178381121543 0 0 0 0
  HIDE 0 0 0 0 0 0 0 0 0 0
  MIRR 2 0
  DISZ  0.15
  DIAM  8.82 1 0 0 1 ""
  POPS 0 0 0 0 0 0 0 0 1 1 1 1 0 0 0 0
SURF 18
  TYPE STANDARD
  CURV 0.0377871825876663 0 0 0 0
  HIDE 0 0 0 0 0 0 0 0 0 0
  MIRR 2 0
  DISZ  4.694
  GLAS  ___BLANK 1 0 1.437001 95.10 0 0 0 0 0 0
  DIAM  8.88 1 0 0 1 ""
  POPS 0 0 0 0 0 0 0 0 1 1 1 1 0 0 0 0
SURF 19
  TYPE STANDARD
  CURV -0.0442223499756777 0 0 0 0
  HIDE 0 0 0 0 0 0 0 0 0 0
  MIRR 2 0
  DISZ  0.8
  GLAS  ___BLANK 1 0 2.001003 29.13 0 0 0 0 0 0
  DIAM  8.88 1 0 0 1 ""
  POPS 0 0 0 0 0 0 0 0 1 1 1 1 0 0 0 0
SURF 20
  TYPE STANDARD
  CURV 0.01407340689034 0 0 0 0
  HIDE 0 0 0 0 0 0 0 0 0 0
  MIRR 2 0
  DISZ  2.175
  DIAM  8.88 1 0 0 1 ""
  POPS 0 0 0 0 0 0 0 0 1 1 1 1 0 0 0 0
SURF 21
  TYPE EVENASPH
  CURV -0.0165289256198347 0 0 0 0
  HIDE 0 0 0 0 0 0 0 0 0 0
  MIRR 2 0
  PARM 1 0
  PARM 2 3.36070E-06
  PARM 3 2.45880E-08
  PARM 4 -3.30620E-10
  PARM 5 0
  PARM 6 0
  PARM 7 0
  PARM 8 0
  DISZ  0.9
  CONI  0
  GLAS  ___BLANK 1 0 1.592014 67.02 0 0 0 0 0 0
  DIAM  8.88 1 0 0 1 ""
  POPS 0 0 0 0 0 0 0 0 1 1 1 1 0 0 0 0
SURF 22
  TYPE STANDARD
  CURV 0.00287070900771072 0 0 0 0
  HIDE 0 0 0 0 0 0 0 0 0 0
  MIRR 2 0
  DISZ  1.142
  DIAM  8.88 1 0 0 1 ""
  POPS 0 0 0 0 0 0 0 0 1 1 1 1 0 0 0 0
SURF 23
  TYPE STANDARD
  CURV 0.0258211113406321 0 0 0 0
  HIDE 0 0 0 0 0 0 0 0 0 0
  MIRR 2 0
  DISZ  1.956
  GLAS  ___BLANK 1 0 1.784719 25.72 0 0 0 0 0 0
  DIAM  9.5 1 0 0 1 ""
  POPS 0 0 0 0 0 0 0 0 1 1 1 1 0 0 0 0
SURF 24
  TYPE STANDARD
  CURV 0.00587271477986129 0 0 0 0
  HIDE 0 0 0 0 0 0 0 0 0 0
  MIRR 2 0
  DISZ  6.702
  DIAM  9.5 1 0 0 1 ""
  POPS 0 0 0 0 0 0 0 0 1 1 1 1 0 0 0 0
SURF 25
  TYPE EVENASPH
  CURV 0.0234758316313355 0 0 0 0
  HIDE 0 0 0 0 0 0 0 0 0 0
  MIRR 2 0
  PARM 1 0
  PARM 2 -1.22070E-05
  PARM 3 -1.04930E-07
  PARM 4 -9.92850E-10
  PARM 5 -7.18780E-13
  PARM 6 0
  PARM 7 0
  PARM 8 0
  DISZ  2.352
  CONI  0
  GLAS  ___BLANK 1 0 1.592014 67.02 0 0 0 0 0 0
  DIAM  10.39 1 0 0 1 ""
  POPS 0 0 0 0 0 0 0 0 1 1 1 1 0 0 0 0
SURF 26
  TYPE EVENASPH
  CURV -0.00666666666666667 0 0 0 0
  HIDE 0 0 0 0 0 0 0 0 0 0
  MIRR 2 0
  PARM 1 0
  PARM 2 2.54590E-05
  PARM 3 -1.18990E-07
  PARM 4 -1.14950E-09
  PARM 5 0
  PARM 6 0
  PARM 7 0
  PARM 8 0
  DISZ  0.978
  CONI  0
  DIAM  10.39 1 0 0 1 ""
  POPS 0 0 0 0 0 0 0 0 1 1 1 1 0 0 0 0
SURF 27
  TYPE STANDARD
  CURV -0.0246250831096555 0 0 0 0
  HIDE 0 0 0 0 0 0 0 0 0 0
  MIRR 2 0
  DISZ  2.428
  GLAS  ___BLANK 1 0 1.437001 95.10 0 0 0 0 0 0
  DIAM  9.7 1 0 0 1 ""
  POPS 0 0 0 0 0 0 0 0 1 1 1 1 0 0 0 0
SURF 28
  TYPE STANDARD
  CURV -0.0449802087081684 0 0 0 0
  HIDE 0 0 0 0 0 0 0 0 0 0
  MIRR 2 0
  DISZ  0.15
  DIAM  10.73 1 0 0 1 ""
  POPS 0 0 0 0 0 0 0 0 1 1 1 1 0 0 0 0
SURF 29
  TYPE STANDARD
  CURV 0.00568990042674253 0 0 0 0
  HIDE 0 0 0 0 0 0 0 0 0 0
  MIRR 2 0
  DISZ  1
  GLAS  ___BLANK 1 0 2.001003 29.13 0 0 0 0 0 0
  DIAM  11.07 1 0 0 1 ""
  POPS 0 0 0 0 0 0 0 0 1 1 1 1 0 0 0 0
SURF 30
  TYPE STANDARD
  CURV 0.0279407655769768 0 0 0 0
  HIDE 0 0 0 0 0 0 0 0 0 0
  MIRR 2 0
  DISZ  2.379
  DIAM  11.07 1 0 0 1 ""
  POPS 0 0 0 0 0 0 0 0 1 1 1 1 0 0 0 0
SURF 31
  TYPE STANDARD
  CURV -0.00265330814459468 0 0 0 0
  HIDE 0 0 0 0 0 0 0 0 0 0
  MIRR 2 0
  DISZ  3.732
  GLAS  ___BLANK 1 0 1.592824 68.62 0 0 0 0 0 0
  DIAM  11.55 1 0 0 1 ""
  POPS 0 0 0 0 0 0 0 0 1 1 1 1 0 0 0 0
SURF 32
  TYPE STANDARD
  CURV -0.0388711809064759 0 0 0 0
  HIDE 0 0 0 0 0 0 0 0 0 0
  MIRR 2 0
  DISZ  38.4984
  DIAM  11.55 1 0 0 1 ""
  POPS 0 0 0 0 0 0 0 0 1 1 1 1 0 0 0 0
SURF 33
  TYPE STANDARD
  CURV 0.0 0 0 0 0 ""
  HIDE 0 0 0 0 0 0 0 0 0 0
  MIRR 2 0
  DISZ 0
  DIAM 14.2 1 0 0 1 ""
  POPS 0 0 0 0 0 0 0 0 1 1 1 1 0 0 0 0
TOL TOFF   0   0              0              0   0 0 0 0
MNUM 6 1
THIC   0   1 1.00E+10 0 0 0 1 1 1 0 0
THIC   0   2 1.00E+10 0 0 0 1 1 1 0 0
THIC   0   3 1.00E+10 0 0 0 1 1 1 0 0
THIC   0   4 96.0996 0 0 0 1 1 1 0 0
THIC   0   5 79.3256 0 0 0 1 1 1 0 0
THIC   0   6 55.6302 0 0 0 1 1 1 0 0
THIC   5   1 3.7000 0 0 0 1 1 1 0 0
THIC   5   2 19.5500 0 0 0 1 1 1 0 0
THIC   5   3 34.6040 0 0 0 1 1 1 0 0
THIC   5   4 1.5854 0 0 0 1 1 1 0 0
THIC   5   5 16.4418 0 0 0 1 1 1 0 0
THIC   5   6 29.7569 0 0 0 1 1 1 0 0
THIC   14   1 16.3260 0 0 0 1 1 1 0 0
THIC   14   2 7.2500 0 0 0 1 1 1 0 0
THIC   14   3 1.7730 0 0 0 1 1 1 0 0
THIC   14   4 18.4406 0 0 0 1 1 1 0 0
THIC   14   5 10.3582 0 0 0 1 1 1 0 0
THIC   14   6 6.6201 0 0 0 1 1 1 0 0
THIC   15   1 1.7000 0 0 0 1 1 1 0 0
THIC   15   2 1.5500 0 0 0 1 1 1 0 0
THIC   15   3 1.4000 0 0 0 1 1 1 0 0
THIC   15   4 1.7000 0 0 0 1 1 1 0 0
THIC   15   5 1.5500 0 0 0 1 1 1 0 0
THIC   15   6 1.4000 0 0 0 1 1 1 0 0
THIC   24   1 6.7020 0 0 0 1 1 1 0 0
THIC   24   2 2.4000 0 0 0 1 1 1 0 0
THIC   24   3 0.7000 0 0 0 1 1 1 0 0
THIC   24   4 6.7020 0 0 0 1 1 1 0 0
THIC   24   5 2.4000 0 0 0 1 1 1 0 0
THIC   24   6 0.7000 0 0 0 1 1 1 0 0
THIC   32   1 38.4984 0 0 0 1 1 1 0 0
THIC   32   2 52.9504 0 0 0 1 1 1 0 0
THIC   32   3 68.9188 0 0 0 1 1 1 0 0
THIC   32   4 38.4984 0 0 0 1 1 1 0 0
THIC   32   5 52.9504 0 0 0 1 1 1 0 0
THIC   32   6 68.9188 0 0 0 1 1 1 0 0
