VERS 161019 507 33785
MODE SEQ
NAME US 2022/0236544 Example 10 (Fujifilm Fujinon GF20-35mm F4 R WR)
NOTE 0 Prepared and converted by Bill Claff.
PFIL 0 0 0
LANG 0
UNIT MM X W X CM MR CPMM
FLOA
ENVD 20 1 0
GFAC 0 0
RAIM 0 2 1 1 0 1 0 0 0
SDMA 0 1 0
FTYP 3 0 3 3 0 0 0
ROPD 2
HYPR 0
PICB 1
XFLN 0 0 0 0 0 0 0 0 0 0 0 0
YFLN 0 19.124 27.32 0 0 0 0 0 0 0 0 0 0
FWGN 1 1 1 1 1 1 1 1 1 1 1 1
VDXN 0 0 0 0 0 0 0 0 0 0 0 0
VDYN 0 0 0 0 0 0 0 0 0 0 0 0
VCXN 0 0 0 0 0 0 0 0 0 0 0 0
VCYN 0 0 0 0 0 0 0 0 0 0 0 0
VANN 0 0 0 0 0 0 0 0 0 0 0 0
WAVM 1 0.4861327 1
WAVM 2 0.5875618 1
WAVM 3 0.6562725 1
WAVM 4 0.550 1
WAVM 5 0.550 1
WAVM 6 0.550 1
WAVM 7 0.550 1
WAVM 8 0.550 1
WAVM 9 0.550 1
WAVM 10 0.550 1
WAVM 11 0.550 1
WAVM 12 0.550 1
WAVM 13 0.550 1
WAVM 14 0.550 1
WAVM 15 0.550 1
WAVM 16 0.550 1
WAVM 17 0.550 1
WAVM 18 0.550 1
WAVM 19 0.550 1
WAVM 20 0.550 1
WAVM 21 0.550 1
WAVM 22 0.550 1
WAVM 23 0.550 1
WAVM 24 0.550 1
PWAV 2
POLS 1 0 1 0 0 1 0
GSTD 0 100 100 100 100 100 100 0 1 1 0 0 1 1 1 1 1 1
NSCD 100 500 0 1.0E-3 5 1.0E-6 0 0 0 0 0 0 1000000 0 2
SURF 0
  TYPE STANDARD
  CURV 0.0 0 0 0 0 ""
  HIDE 0 0 0 0 0 0 0 0 0 0
  MIRR 2 0
  DISZ INFINITY
  DIAM 0 1 0 0 1 ""
  POPS 0 0 0 0 0 0 0 0 1 1 1 1 0 0 0 0
SURF 1
  TYPE STANDARD
  CURV 0.0236427858767454 0 0 0 0
  HIDE 0 0 0 0 0 0 0 0 0 0
  MIRR 2 0
  DISZ  1.4
  GLAS  ___BLANK 1 0 1.95906 17.47 0 0 0 0 0 0
  DIAM  23.55 1 0 0 1 ""
  POPS 0 0 0 0 0 0 0 0 1 1 1 1 0 0 0 0
SURF 2
  TYPE STANDARD
  CURV 0.0471922944421635 0 0 0 0
  HIDE 0 0 0 0 0 0 0 0 0 0
  MIRR 2 0
  DISZ  6.3511
  DIAM  17.95 1 0 0 1 ""
  POPS 0 0 0 0 0 0 0 0 1 1 1 1 0 0 0 0
SURF 3
  TYPE XOSPHERE
  CURV 0.0163452642865782 0 0 0 0
  HIDE 0 0 0 0 0 0 0 0 0 0
  MIRR 2 0
  XDAT 1 10 0 0 1 0 0 ""
  XDAT 2 1 0 0 1 0 0 ""
  XDAT 3 0 0 0 1 0 0 ""
  XDAT 4 0 0 0 1 0 0 ""
  XDAT 5 0.0000000E+00 0 0 1 0 0 ""
  XDAT 6 4.1300441E-05 0 0 1 0 0 ""
  XDAT 7 -2.4033683E-06 0 0 1 0 0 ""
  XDAT 8 -4.8681225E-08 0 0 1 0 0 ""
  XDAT 9 5.3290405E-09 0 0 1 0 0 ""
  XDAT 10 1.7877787E-10 0 0 1 0 0 ""
  XDAT 11 -1.7943006E-11 0 0 1 0 0 ""
  XDAT 12 3.2566028E-13 0 0 1 0 0 ""
  DISZ  2.29
  CONI  0
  GLAS  ___BLANK 1 0 1.58313 59.46 0 0 0 0 0 0
  DIAM  18.38 1 0 0 1 ""
  POPS 0 0 0 0 0 0 0 0 1 1 1 1 0 0 0 0
SURF 4
  TYPE XOSPHERE
  CURV 0.0522714561259533 0 0 0 0
  HIDE 0 0 0 0 0 0 0 0 0 0
  MIRR 2 0
  XDAT 1 10 0 0 1 0 0 ""
  XDAT 2 1 0 0 1 0 0 ""
  XDAT 3 0 0 0 1 0 0 ""
  XDAT 4 0 0 0 1 0 0 ""
  XDAT 5 0.0000000E+00 0 0 1 0 0 ""
  XDAT 6 3.0099143E-05 0 0 1 0 0 ""
  XDAT 7 -1.6543125E-06 0 0 1 0 0 ""
  XDAT 8 -8.7456445E-08 0 0 1 0 0 ""
  XDAT 9 1.0604481E-09 0 0 1 0 0 ""
  XDAT 10 -9.8343487E-12 0 0 1 0 0 ""
  XDAT 11 3.5349032E-11 0 0 1 0 0 ""
  XDAT 12 -1.6366418E-12 0 0 1 0 0 ""
  DISZ  9.1788
  CONI  0
  DIAM  15.015 1 0 0 1 ""
  POPS 0 0 0 0 0 0 0 0 1 1 1 1 0 0 0 0
SURF 5
  TYPE STANDARD
  CURV -0.017790618650973 0 0 0 0
  HIDE 0 0 0 0 0 0 0 0 0 0
  MIRR 2 0
  DISZ  1.21
  GLAS  ___BLANK 1 0 1.49700 81.60 0 0 0 0 0 0
  DIAM  15.015 1 0 0 1 ""
  POPS 0 0 0 0 0 0 0 0 1 1 1 1 0 0 0 0
SURF 6
  TYPE STANDARD
  CURV 0.0382010367761381 0 0 0 0
  HIDE 0 0 0 0 0 0 0 0 0 0
  MIRR 2 0
  DISZ  4.79
  GLAS  ___BLANK 1 0 1.84667 23.79 0 0 0 0 0 0
  DIAM  14.88 1 0 0 1 ""
  POPS 0 0 0 0 0 0 0 0 1 1 1 1 0 0 0 0
SURF 7
  TYPE STANDARD
  CURV 0.00728147033274135 0 0 0 0
  HIDE 0 0 0 0 0 0 0 0 0 0
  MIRR 2 0
  DISZ  17.46
  DIAM  14.88 1 0 0 1 ""
  POPS 0 0 0 0 0 0 0 0 1 1 1 1 0 0 0 0
SURF 8
  TYPE STANDARD
  CURV 0.0223366354326048 0 0 0 0
  HIDE 0 0 0 0 0 0 0 0 0 0
  MIRR 2 0
  DISZ  2.45
  GLAS  ___BLANK 1 0 1.91082 35.25 0 0 0 0 0 0
  DIAM  9.055 1 0 0 1 ""
  POPS 0 0 0 0 0 0 0 0 1 1 1 1 0 0 0 0
SURF 9
  TYPE STANDARD
  CURV 0 0 0 0 0
  HIDE 0 0 0 0 0 0 0 0 0 0
  MIRR 2 0
  DISZ  7.0374
  DIAM  11.03 1 0 0 1 ""
  POPS 0 0 0 0 0 0 0 0 1 1 1 1 0 0 0 0
SURF 10
  TYPE XOSPHERE
  CURV -0.0272404597099981 0 0 0 0
  HIDE 0 0 0 0 0 0 0 0 0 0
  MIRR 2 0
  XDAT 1 10 0 0 1 0 0 ""
  XDAT 2 1 0 0 1 0 0 ""
  XDAT 3 0 0 0 1 0 0 ""
  XDAT 4 0 0 0 1 0 0 ""
  XDAT 5 0.0000000E+00 0 0 1 0 0 ""
  XDAT 6 5.8666005E-05 0 0 1 0 0 ""
  XDAT 7 -1.1082747E-07 0 0 1 0 0 ""
  XDAT 8 -2.0831316E-08 0 0 1 0 0 ""
  XDAT 9 3.2732275E-08 0 0 1 0 0 ""
  XDAT 10 -5.0650804E-09 0 0 1 0 0 ""
  XDAT 11 3.6587411E-10 0 0 1 0 0 ""
  XDAT 12 -1.0976748E-11 0 0 1 0 0 ""
  DISZ  2.75
  CONI  0
  GLAS  ___BLANK 1 0 1.68863 31.20 0 0 0 0 0 0
  DIAM  9.16 1 0 0 1 ""
  POPS 0 0 0 0 0 0 0 0 1 1 1 1 0 0 0 0
SURF 11
  TYPE XOSPHERE
  CURV -0.0224731726501489 0 0 0 0
  HIDE 0 0 0 0 0 0 0 0 0 0
  MIRR 2 0
  XDAT 1 10 0 0 1 0 0 ""
  XDAT 2 1 0 0 1 0 0 ""
  XDAT 3 0 0 0 1 0 0 ""
  XDAT 4 0 0 0 1 0 0 ""
  XDAT 5 0.0000000E+00 0 0 1 0 0 ""
  XDAT 6 6.2126215E-05 0 0 1 0 0 ""
  XDAT 7 -1.8583677E-06 0 0 1 0 0 ""
  XDAT 8 6.8611949E-07 0 0 1 0 0 ""
  XDAT 9 -1.0884906E-07 0 0 1 0 0 ""
  XDAT 10 1.1559071E-08 0 0 1 0 0 ""
  XDAT 11 -6.5016237E-10 0 0 1 0 0 ""
  XDAT 12 1.5338197E-11 0 0 1 0 0 ""
  DISZ  7.56
  CONI  0
  DIAM  9.16 1 0 0 1 ""
  POPS 0 0 0 0 0 0 0 0 1 1 1 1 0 0 0 0
SURF 12
  STOP
  TYPE STANDARD
  CURV 0 0 0 0 0
  HIDE 0 0 0 0 0 0 0 0 0 0
  MIRR 2 0
  DISZ  1.2008
  DIAM  6.621 1 0 0 1 ""
  POPS 0 0 0 0 0 0 0 0 1 1 1 1 0 0 0 0
SURF 13
  TYPE STANDARD
  CURV 0.0384985563041386 0 0 0 0
  HIDE 0 0 0 0 0 0 0 0 0 0
  MIRR 2 0
  DISZ  6.98
  GLAS  ___BLANK 1 0 1.48749 70.44 0 0 0 0 0 0
  DIAM  10.17 1 0 0 1 ""
  POPS 0 0 0 0 0 0 0 0 1 1 1 1 0 0 0 0
SURF 14
  TYPE STANDARD
  CURV -0.0384985563041386 0 0 0 0
  HIDE 0 0 0 0 0 0 0 0 0 0
  MIRR 2 0
  DISZ  0.8
  GLAS  ___BLANK 1 0 1.75700 47.71 0 0 0 0 0 0
  DIAM  10.17 1 0 0 1 ""
  POPS 0 0 0 0 0 0 0 0 1 1 1 1 0 0 0 0
SURF 15
  TYPE STANDARD
  CURV 0.0514827018121911 0 0 0 0
  HIDE 0 0 0 0 0 0 0 0 0 0
  MIRR 2 0
  DISZ  3.85
  GLAS  ___BLANK 1 0 1.49700 81.61 0 0 0 0 0 0
  DIAM  10.14 1 0 0 1 ""
  POPS 0 0 0 0 0 0 0 0 1 1 1 1 0 0 0 0
SURF 16
  TYPE STANDARD
  CURV 0 0 0 0 0
  HIDE 0 0 0 0 0 0 0 0 0 0
  MIRR 2 0
  DISZ  1.4526
  DIAM  10.14 1 0 0 1 ""
  POPS 0 0 0 0 0 0 0 0 1 1 1 1 0 0 0 0
SURF 17
  TYPE XOSPHERE
  CURV 0.0253866385044224 0 0 0 0
  HIDE 0 0 0 0 0 0 0 0 0 0
  MIRR 2 0
  XDAT 1 10 0 0 1 0 0 ""
  XDAT 2 1 0 0 1 0 0 ""
  XDAT 3 0 0 0 1 0 0 ""
  XDAT 4 0 0 0 1 0 0 ""
  XDAT 5 0.0000000E+00 0 0 1 0 0 ""
  XDAT 6 -9.5480325E-06 0 0 1 0 0 ""
  XDAT 7 8.5764274E-07 0 0 1 0 0 ""
  XDAT 8 -1.3625695E-07 0 0 1 0 0 ""
  XDAT 9 4.6449896E-09 0 0 1 0 0 ""
  XDAT 10 8.2283721E-10 0 0 1 0 0 ""
  XDAT 11 -8.4896133E-11 0 0 1 0 0 ""
  XDAT 12 2.3243095E-12 0 0 1 0 0 ""
  DISZ  6.8
  CONI  0
  GLAS  ___BLANK 1 0 1.49648 81.30 0 0 0 0 0 0
  DIAM  12.18 1 0 0 1 ""
  POPS 0 0 0 0 0 0 0 0 1 1 1 1 0 0 0 0
SURF 18
  TYPE XOSPHERE
  CURV -0.0439180138517416 0 0 0 0
  HIDE 0 0 0 0 0 0 0 0 0 0
  MIRR 2 0
  XDAT 1 10 0 0 1 0 0 ""
  XDAT 2 1 0 0 1 0 0 ""
  XDAT 3 0 0 0 1 0 0 ""
  XDAT 4 0 0 0 1 0 0 ""
  XDAT 5 0.0000000E+00 0 0 1 0 0 ""
  XDAT 6 5.1436650E-06 0 0 1 0 0 ""
  XDAT 7 3.5383265E-07 0 0 1 0 0 ""
  XDAT 8 -5.7514914E-08 0 0 1 0 0 ""
  XDAT 9 1.6762465E-09 0 0 1 0 0 ""
  XDAT 10 1.7360953E-10 0 0 1 0 0 ""
  XDAT 11 -1.4084261E-11 0 0 1 0 0 ""
  XDAT 12 8.0801659E-14 0 0 1 0 0 ""
  DISZ  7.45
  CONI  0
  DIAM  12.18 1 0 0 1 ""
  POPS 0 0 0 0 0 0 0 0 1 1 1 1 0 0 0 0
SURF 19
  TYPE STANDARD
  CURV 0.0240419869259675 0 0 0 0
  HIDE 0 0 0 0 0 0 0 0 0 0
  MIRR 2 0
  DISZ  1.15
  GLAS  ___BLANK 1 0 1.90366 31.31 0 0 0 0 0 0
  DIAM  14.03 1 0 0 1 ""
  POPS 0 0 0 0 0 0 0 0 1 1 1 1 0 0 0 0
SURF 20
  TYPE STANDARD
  CURV 0.0600175251173343 0 0 0 0
  HIDE 0 0 0 0 0 0 0 0 0 0
  MIRR 2 0
  DISZ  4.85
  GLAS  ___BLANK 1 0 1.49700 81.61 0 0 0 0 0 0
  DIAM  12.9 1 0 0 1 ""
  POPS 0 0 0 0 0 0 0 0 1 1 1 1 0 0 0 0
SURF 21
  TYPE STANDARD
  CURV 0.0235856844329766 0 0 0 0
  HIDE 0 0 0 0 0 0 0 0 0 0
  MIRR 2 0
  DISZ  4.7645
  DIAM  12.655 1 0 0 1 ""
  POPS 0 0 0 0 0 0 0 0 1 1 1 1 0 0 0 0
SURF 22
  TYPE XOSPHERE
  CURV -0.0218024523398392 0 0 0 0
  HIDE 0 0 0 0 0 0 0 0 0 0
  MIRR 2 0
  XDAT 1 10 0 0 1 0 0 ""
  XDAT 2 1 0 0 1 0 0 ""
  XDAT 3 0 0 0 1 0 0 ""
  XDAT 4 0 0 0 1 0 0 ""
  XDAT 5 0.0000000E+00 0 0 1 0 0 ""
  XDAT 6 -2.2230188E-05 0 0 1 0 0 ""
  XDAT 7 -2.5662668E-06 0 0 1 0 0 ""
  XDAT 8 6.2977636E-08 0 0 1 0 0 ""
  XDAT 9 1.5501381E-08 0 0 1 0 0 ""
  XDAT 10 -1.3231686E-09 0 0 1 0 0 ""
  XDAT 11 7.9174894E-11 0 0 1 0 0 ""
  XDAT 12 -4.3970839E-12 0 0 1 0 0 ""
  DISZ  1.5
  CONI  0
  GLAS  ___BLANK 1 0 1.69350 53.20 0 0 0 0 0 0
  DIAM  12.655 1 0 0 1 ""
  POPS 0 0 0 0 0 0 0 0 1 1 1 1 0 0 0 0
SURF 23
  TYPE XOSPHERE
  CURV -0.00360111721060342 0 0 0 0
  HIDE 0 0 0 0 0 0 0 0 0 0
  MIRR 2 0
  XDAT 1 10 0 0 1 0 0 ""
  XDAT 2 1 0 0 1 0 0 ""
  XDAT 3 0 0 0 1 0 0 ""
  XDAT 4 0 0 0 1 0 0 ""
  XDAT 5 0.0000000E+00 0 0 1 0 0 ""
  XDAT 6 -1.4798556E-06 0 0 1 0 0 ""
  XDAT 7 -3.9669057E-06 0 0 1 0 0 ""
  XDAT 8 1.9581443E-07 0 0 1 0 0 ""
  XDAT 9 1.5953243E-08 0 0 1 0 0 ""
  XDAT 10 -8.6203549E-10 0 0 1 0 0 ""
  XDAT 11 -4.6746994E-11 0 0 1 0 0 ""
  XDAT 12 2.4548978E-12 0 0 1 0 0 ""
  DISZ  5.08
  CONI  0
  DIAM  13.865 1 0 0 1 ""
  POPS 0 0 0 0 0 0 0 0 1 1 1 1 0 0 0 0
SURF 24
  TYPE STANDARD
  CURV -0.00393013323544681 0 0 0 0
  HIDE 0 0 0 0 0 0 0 0 0 0
  MIRR 2 0
  DISZ  6.55
  GLAS  ___BLANK 1 0 1.87070 40.73 0 0 0 0 0 0
  DIAM  24.16 1 0 0 1 ""
  POPS 0 0 0 0 0 0 0 0 1 1 1 1 0 0 0 0
SURF 25
  TYPE STANDARD
  CURV -0.0220994963524781 0 0 0 0
  HIDE 0 0 0 0 0 0 0 0 0 0
  MIRR 2 0
  DISZ  17.0778
  DIAM  24.16 1 0 0 1 ""
  POPS 0 0 0 0 0 0 0 0 1 1 1 1 0 0 0 0
SURF 26
  TYPE STANDARD
  CURV 0 0 0 0 0
  HIDE 0 0 0 0 0 0 0 0 0 0
  MIRR 2 0
  DISZ  3.2
  GLAS  ___BLANK 1 0 1.51680 64.20 0 0 0 0 0 0
  DIAM  27.46 1 0 0 1 ""
  POPS 0 0 0 0 0 0 0 0 1 1 1 1 0 0 0 0
SURF 27
  TYPE STANDARD
  CURV 0 0 0 0 0
  HIDE 0 0 0 0 0 0 0 0 0 0
  MIRR 2 0
  DISZ  2.05
  DIAM  27.46 1 0 0 1 ""
  POPS 0 0 0 0 0 0 0 0 1 1 1 1 0 0 0 0
SURF 28
  TYPE STANDARD
  CURV 0.0 0 0 0 0 ""
  HIDE 0 0 0 0 0 0 0 0 0 0
  MIRR 2 0
  DISZ 0
  DIAM 27.32 1 0 0 1 ""
  POPS 0 0 0 0 0 0 0 0 1 1 1 1 0 0 0 0
TOL TOFF   0   0              0              0   0 0 0 0
MNUM 5 1
SDIA   12   1 6.621 0 0 0 1 1 1 0 0
SDIA   12   2 7.936 0 0 0 1 1 1 0 0
SDIA   12   3 8.71 0 0 0 1 1 1 0 0
SDIA   12   4 6.621 0 0 0 1 1 1 0 0
SDIA   12   5 8.71 0 0 0 1 1 1 0 0
THIC   0   1 1.00E+10 0 0 0 1 1 1 0 0
THIC   0   2 1.00E+10 0 0 0 1 1 1 0 0
THIC   0   3 1.00E+10 0 0 0 1 1 1 0 0
THIC   0   4 180.59 0 0 0 1 1 1 0 0
THIC   0   5 316.78 0 0 0 1 1 1 0 0
THIC   7   1 17.460 0 0 0 1 1 1 0 0
THIC   7   2 7.850 0 0 0 1 1 1 0 0
THIC   7   3 2.540 0 0 0 1 1 1 0 0
THIC   7   4 19.500 0 0 0 1 1 1 0 0
THIC   7   5 3.910 0 0 0 1 1 1 0 0
THIC   11   1 7.560 0 0 0 1 1 1 0 0
THIC   11   2 6.450 0 0 0 1 1 1 0 0
THIC   11   3 5.170 0 0 0 1 1 1 0 0
THIC   11   4 5.520 0 0 0 1 1 1 0 0
THIC   11   5 3.800 0 0 0 1 1 1 0 0
THIC   18   1 7.450 0 0 0 1 1 1 0 0
THIC   18   2 11.970 0 0 0 1 1 1 0 0
THIC   18   3 16.410 0 0 0 1 1 1 0 0
THIC   18   4 7.450 0 0 0 1 1 1 0 0
THIC   18   5 16.410 0 0 0 1 1 1 0 0
THIC   23   1 5.080 0 0 0 1 1 1 0 0
THIC   23   2 11.280 0 0 0 1 1 1 0 0
THIC   23   3 13.430 0 0 0 1 1 1 0 0
THIC   23   4 5.080 0 0 0 1 1 1 0 0
THIC   23   5 13.430 0 0 0 1 1 1 0 0
