VERS 161019 507 33785
MODE SEQ
NAME US 2021/0231930 Example 1 (Fujifilm Fujinon GF30mm F3.5 R WR)
NOTE 0 Prepared and converted by Bill Claff.
PFIL 0 0 0
LANG 0
UNIT MM X W X CM MR CPMM
FNUM 3.51 0
ENVD 20 1 0
GFAC 0 0
RAIM 0 2 1 1 0 1 0 0 0
SDMA 0 1 0
FTYP 3 0 3 3 0 0 0
ROPD 2
HYPR 0
PICB 1
XFLN 0 0 0 0 0 0 0 0 0 0 0 0
YFLN 0 19.46 27.8 0 0 0 0 0 0 0 0 0 0
FWGN 1 1 1 1 1 1 1 1 1 1 1 1
VDXN 0 0 0 0 0 0 0 0 0 0 0 0
VDYN 0 0 0 0 0 0 0 0 0 0 0 0
VCXN 0 0 0 0 0 0 0 0 0 0 0 0
VCYN 0 0 0 0 0 0 0 0 0 0 0 0
VANN 0 0 0 0 0 0 0 0 0 0 0 0
WAVM 1 0.4861327 1
WAVM 2 0.5875618 1
WAVM 3 0.6562725 1
WAVM 4 0.550 1
WAVM 5 0.550 1
WAVM 6 0.550 1
WAVM 7 0.550 1
WAVM 8 0.550 1
WAVM 9 0.550 1
WAVM 10 0.550 1
WAVM 11 0.550 1
WAVM 12 0.550 1
WAVM 13 0.550 1
WAVM 14 0.550 1
WAVM 15 0.550 1
WAVM 16 0.550 1
WAVM 17 0.550 1
WAVM 18 0.550 1
WAVM 19 0.550 1
WAVM 20 0.550 1
WAVM 21 0.550 1
WAVM 22 0.550 1
WAVM 23 0.550 1
WAVM 24 0.550 1
PWAV 2
POLS 1 0 1 0 0 1 0
GSTD 0 100 100 100 100 100 100 0 1 1 0 0 1 1 1 1 1 1
NSCD 100 500 0 1.0E-3 5 1.0E-6 0 0 0 0 0 0 1000000 0 2
SURF 0
  TYPE STANDARD
  CURV 0.0 0 0 0 0 ""
  HIDE 0 0 0 0 0 0 0 0 0 0
  MIRR 2 0
  DISZ INFINITY
  DIAM 0 1 0 0 1 ""
  POPS 0 0 0 0 0 0 0 0 1 1 1 1 0 0 0 0
SURF 1
  TYPE XOSPHERE
  CURV 0.00761853681429359 0 0 0 0
  HIDE 0 0 0 0 0 0 0 0 0 0
  MIRR 2 0
  XDAT 1 20 0 0 1 0 0 ""
  XDAT 2 1 0 0 1 0 0 ""
  XDAT 3 0 0 0 1 0 0 ""
  XDAT 4 0 0 0 1 0 0 ""
  XDAT 5 0 0 0 1 0 0 ""
  XDAT 6 -2.8886874E-06 0 0 1 0 0 ""
  XDAT 7 -6.5306725E-07 0 0 1 0 0 ""
  XDAT 8 2.0127359E-08 0 0 1 0 0 ""
  XDAT 9 1.3907664E-09 0 0 1 0 0 ""
  XDAT 10 1.3104211E-11 0 0 1 0 0 ""
  XDAT 11 -2.3166044E-12 0 0 1 0 0 ""
  XDAT 12 -1.5905045E-13 0 0 1 0 0 ""
  XDAT 13 -3.5069163E-15 0 0 1 0 0 ""
  XDAT 14 -4.0112500E-17 0 0 1 0 0 ""
  XDAT 15 -1.3482658E-18 0 0 1 0 0 ""
  XDAT 16 2.3430938E-18 0 0 1 0 0 ""
  XDAT 17 7.8738693E-20 0 0 1 0 0 ""
  XDAT 18 6.0688836E-21 0 0 1 0 0 ""
  XDAT 19 -5.8425280E-22 0 0 1 0 0 ""
  XDAT 20 -6.8412335E-23 0 0 1 0 0 ""
  XDAT 21 4.7409996E-24 0 0 1 0 0 ""
  XDAT 22 -7.1601272E-26 0 0 1 0 0 ""
  DISZ  2
  CONI  0
  GLAS  ___BLANK 1 0 1.85108 40.12 0 0 0 0 0 0
  DIAM  19.475 1 0 0 1 ""
  POPS 0 0 0 0 0 0 0 0 1 1 1 1 0 0 0 0
SURF 2
  TYPE XOSPHERE
  CURV 0.0599032682025066 0 0 0 0
  HIDE 0 0 0 0 0 0 0 0 0 0
  MIRR 2 0
  XDAT 1 20 0 0 1 0 0 ""
  XDAT 2 1 0 0 1 0 0 ""
  XDAT 3 0 0 0 1 0 0 ""
  XDAT 4 0 0 0 1 0 0 ""
  XDAT 5 0 0 0 1 0 0 ""
  XDAT 6 -1.9266855E-05 0 0 1 0 0 ""
  XDAT 7 -6.8136315E-07 0 0 1 0 0 ""
  XDAT 8 -5.1386769E-08 0 0 1 0 0 ""
  XDAT 9 1.5435168E-09 0 0 1 0 0 ""
  XDAT 10 -1.8823117E-10 0 0 1 0 0 ""
  XDAT 11 1.2882017E-11 0 0 1 0 0 ""
  XDAT 12 -5.8433378E-14 0 0 1 0 0 ""
  XDAT 13 -9.2461790E-14 0 0 1 0 0 ""
  XDAT 14 1.1586160E-14 0 0 1 0 0 ""
  XDAT 15 -1.3601845E-15 0 0 1 0 0 ""
  XDAT 16 2.3396195E-17 0 0 1 0 0 ""
  XDAT 17 4.6200395E-18 0 0 1 0 0 ""
  XDAT 18 -9.1617300E-19 0 0 1 0 0 ""
  XDAT 19 7.7555717E-20 0 0 1 0 0 ""
  XDAT 20 -3.5245709E-22 0 0 1 0 0 ""
  XDAT 21 -1.7353689E-22 0 0 1 0 0 ""
  XDAT 22 3.7488999E-24 0 0 1 0 0 ""
  DISZ  8.02
  CONI  0
  DIAM  14.48 1 0 0 1 ""
  POPS 0 0 0 0 0 0 0 0 1 1 1 1 0 0 0 0
SURF 3
  TYPE STANDARD
  CURV -0.0149554089526667 0 0 0 0
  HIDE 0 0 0 0 0 0 0 0 0 0
  MIRR 2 0
  DISZ  1.07
  GLAS  ___BLANK 1 0 1.49700 81.59 0 0 0 0 0 0
  DIAM  14.48 1 0 0 1 ""
  POPS 0 0 0 0 0 0 0 0 1 1 1 1 0 0 0 0
SURF 4
  TYPE STANDARD
  CURV 0.0149554089526667 0 0 0 0
  HIDE 0 0 0 0 0 0 0 0 0 0
  MIRR 2 0
  DISZ  5.45
  DIAM  14.48 1 0 0 1 ""
  POPS 0 0 0 0 0 0 0 0 1 1 1 1 0 0 0 0
SURF 5
  TYPE STANDARD
  CURV 0.00228035006839682 0 0 0 0
  HIDE 0 0 0 0 0 0 0 0 0 0
  MIRR 2 0
  DISZ  3.05
  GLAS  ___BLANK 1 0 1.78470 26.29 0 0 0 0 0 0
  DIAM  16.56 1 0 0 1 ""
  POPS 0 0 0 0 0 0 0 0 1 1 1 1 0 0 0 0
SURF 6
  TYPE STANDARD
  CURV -0.0100813880538979 0 0 0 0
  HIDE 0 0 0 0 0 0 0 0 0 0
  MIRR 2 0
  DISZ  4.69
  DIAM  16.56 1 0 0 1 ""
  POPS 0 0 0 0 0 0 0 0 1 1 1 1 0 0 0 0
SURF 7
  TYPE STANDARD
  CURV 0.0203991002364868 0 0 0 0
  HIDE 0 0 0 0 0 0 0 0 0 0
  MIRR 2 0
  DISZ  5.25
  GLAS  ___BLANK 1 0 1.78590 44.21 0 0 0 0 0 0
  DIAM  15.56 1 0 0 1 ""
  POPS 0 0 0 0 0 0 0 0 1 1 1 1 0 0 0 0
SURF 8
  TYPE STANDARD
  CURV -0.0111434829290199 0 0 0 0
  HIDE 0 0 0 0 0 0 0 0 0 0
  MIRR 2 0
  DISZ  6.19
  DIAM  15.56 1 0 0 1 ""
  POPS 0 0 0 0 0 0 0 0 1 1 1 1 0 0 0 0
SURF 9
  TYPE STANDARD
  CURV 0.0330388361607419 0 0 0 0
  HIDE 0 0 0 0 0 0 0 0 0 0
  MIRR 2 0
  DISZ  1.29
  GLAS  ___BLANK 1 0 1.79952 42.25 0 0 0 0 0 0
  DIAM  11.95 1 0 0 1 ""
  POPS 0 0 0 0 0 0 0 0 1 1 1 1 0 0 0 0
SURF 10
  TYPE STANDARD
  CURV 0.0721240533717995 0 0 0 0
  HIDE 0 0 0 0 0 0 0 0 0 0
  MIRR 2 0
  DISZ  6.75
  GLAS  ___BLANK 1 0 1.62299 58.16 0 0 0 0 0 0
  DIAM  11.25 1 0 0 1 ""
  POPS 0 0 0 0 0 0 0 0 1 1 1 1 0 0 0 0
SURF 11
  TYPE STANDARD
  CURV 0.00557775408719692 0 0 0 0
  HIDE 0 0 0 0 0 0 0 0 0 0
  MIRR 2 0
  DISZ  6.56
  DIAM  11.25 1 0 0 1 ""
  POPS 0 0 0 0 0 0 0 0 1 1 1 1 0 0 0 0
SURF 12
  STOP
  TYPE STANDARD
  CURV 0 0 0 0 0
  HIDE 0 0 0 0 0 0 0 0 0 0
  MIRR 2 0
  DISZ  5
  DIAM  7.77 1 0 0 1 ""
  POPS 0 0 0 0 0 0 0 0 1 1 1 1 0 0 0 0
SURF 13
  TYPE STANDARD
  CURV 0.0258767227751647 0 0 0 0
  HIDE 0 0 0 0 0 0 0 0 0 0
  MIRR 2 0
  DISZ  1.5
  GLAS  ___BLANK 1 0 1.95375 32.32 0 0 0 0 0 0
  DIAM  11.25 1 0 0 1 ""
  POPS 0 0 0 0 0 0 0 0 1 1 1 1 0 0 0 0
SURF 14
  TYPE STANDARD
  CURV 0.0804569957357792 0 0 0 0
  HIDE 0 0 0 0 0 0 0 0 0 0
  MIRR 2 0
  DISZ  5.99
  GLAS  ___BLANK 1 0 1.49700 81.59 0 0 0 0 0 0
  DIAM  10.105 1 0 0 1 ""
  POPS 0 0 0 0 0 0 0 0 1 1 1 1 0 0 0 0
SURF 15
  TYPE STANDARD
  CURV 0.00286588988058869 0 0 0 0
  HIDE 0 0 0 0 0 0 0 0 0 0
  MIRR 2 0
  DISZ  4.67
  DIAM  10.105 1 0 0 1 ""
  POPS 0 0 0 0 0 0 0 0 1 1 1 1 0 0 0 0
SURF 16
  TYPE XOSPHERE
  CURV -0.00653300487126975 0 0 0 0
  HIDE 0 0 0 0 0 0 0 0 0 0
  MIRR 2 0
  XDAT 1 20 0 0 1 0 0 ""
  XDAT 2 1 0 0 1 0 0 ""
  XDAT 3 0 0 0 1 0 0 ""
  XDAT 4 0 0 0 1 0 0 ""
  XDAT 5 0 0 0 1 0 0 ""
  XDAT 6 1.1426426E-10 0 0 1 0 0 ""
  XDAT 7 -5.7428082E-06 0 0 1 0 0 ""
  XDAT 8 -5.1973760E-08 0 0 1 0 0 ""
  XDAT 9 2.9635184E-07 0 0 1 0 0 ""
  XDAT 10 -1.8237844E-08 0 0 1 0 0 ""
  XDAT 11 -9.4716911E-09 0 0 1 0 0 ""
  XDAT 12 8.3598439E-10 0 0 1 0 0 ""
  XDAT 13 2.1406144E-10 0 0 1 0 0 ""
  XDAT 14 -2.2603381E-11 0 0 1 0 0 ""
  XDAT 15 -2.7933578E-12 0 0 1 0 0 ""
  XDAT 16 3.2181986E-13 0 0 1 0 0 ""
  XDAT 17 2.2872157E-14 0 0 1 0 0 ""
  XDAT 18 -2.6332566E-15 0 0 1 0 0 ""
  XDAT 19 -1.0554255E-16 0 0 1 0 0 ""
  XDAT 20 9.1228254E-18 0 0 1 0 0 ""
  XDAT 21 6.2511786E-19 0 0 1 0 0 ""
  XDAT 22 -3.9051285E-20 0 0 1 0 0 ""
  DISZ  4.68
  CONI  0
  GLAS  ___BLANK 1 0 1.58135 59.38 0 0 0 0 0 0
  DIAM  9.89 1 0 0 1 ""
  POPS 0 0 0 0 0 0 0 0 1 1 1 1 0 0 0 0
SURF 17
  TYPE XOSPHERE
  CURV -0.0547149215798386 0 0 0 0
  HIDE 0 0 0 0 0 0 0 0 0 0
  MIRR 2 0
  XDAT 1 20 0 0 1 0 0 ""
  XDAT 2 1 0 0 1 0 0 ""
  XDAT 3 0 0 0 1 0 0 ""
  XDAT 4 0 0 0 1 0 0 ""
  XDAT 5 0 0 0 1 0 0 ""
  XDAT 6 2.1286361E-05 0 0 1 0 0 ""
  XDAT 7 -1.1336064E-05 0 0 1 0 0 ""
  XDAT 8 3.2648953E-06 0 0 1 0 0 ""
  XDAT 9 -7.1293049E-07 0 0 1 0 0 ""
  XDAT 10 1.0856552E-07 0 0 1 0 0 ""
  XDAT 11 -4.7133356E-09 0 0 1 0 0 ""
  XDAT 12 -1.9454358E-09 0 0 1 0 0 ""
  XDAT 13 3.3012812E-10 0 0 1 0 0 ""
  XDAT 14 1.3422800E-12 0 0 1 0 0 ""
  XDAT 15 -3.7812852E-12 0 0 1 0 0 ""
  XDAT 16 9.4470544E-14 0 0 1 0 0 ""
  XDAT 17 3.1663551E-14 0 0 1 0 0 ""
  XDAT 18 -1.7021310E-15 0 0 1 0 0 ""
  XDAT 19 -9.4195383E-17 0 0 1 0 0 ""
  XDAT 20 6.0289050E-18 0 0 1 0 0 ""
  XDAT 21 2.0266550E-19 0 0 1 0 0 ""
  XDAT 22 -1.2179780E-20 0 0 1 0 0 ""
  DISZ  5.22
  CONI  0
  DIAM  11.79 1 0 0 1 ""
  POPS 0 0 0 0 0 0 0 0 1 1 1 1 0 0 0 0
SURF 18
  TYPE STANDARD
  CURV -0.00618189445515595 0 0 0 0
  HIDE 0 0 0 0 0 0 0 0 0 0
  MIRR 2 0
  DISZ  5.34
  GLAS  ___BLANK 1 0 2.00272 19.32 0 0 0 0 0 0
  DIAM  14.335 1 0 0 1 ""
  POPS 0 0 0 0 0 0 0 0 1 1 1 1 0 0 0 0
SURF 19
  TYPE STANDARD
  CURV -0.0351741118536757 0 0 0 0
  HIDE 0 0 0 0 0 0 0 0 0 0
  MIRR 2 0
  DISZ  1.21
  GLAS  ___BLANK 1 0 1.73800 32.33 0 0 0 0 0 0
  DIAM  15.64 1 0 0 1 ""
  POPS 0 0 0 0 0 0 0 0 1 1 1 1 0 0 0 0
SURF 20
  TYPE STANDARD
  CURV 0.023808973935602 0 0 0 0
  HIDE 0 0 0 0 0 0 0 0 0 0
  MIRR 2 0
  DISZ  3.9
  DIAM  14.045 1 0 0 1 ""
  POPS 0 0 0 0 0 0 0 0 1 1 1 1 0 0 0 0
SURF 21
  TYPE STANDARD
  CURV -0.0148056966990847 0 0 0 0
  HIDE 0 0 0 0 0 0 0 0 0 0
  MIRR 2 0
  DISZ  1.02
  GLAS  ___BLANK 1 0 1.94595 17.98 0 0 0 0 0 0
  DIAM  14.045 1 0 0 1 ""
  POPS 0 0 0 0 0 0 0 0 1 1 1 1 0 0 0 0
SURF 22
  TYPE STANDARD
  CURV -0.00234929479456181 0 0 0 0
  HIDE 0 0 0 0 0 0 0 0 0 0
  MIRR 2 0
  DISZ  3.05
  DIAM  16.165 1 0 0 1 ""
  POPS 0 0 0 0 0 0 0 0 1 1 1 1 0 0 0 0
SURF 23
  TYPE STANDARD
  CURV 0.00799802928558403 0 0 0 0
  HIDE 0 0 0 0 0 0 0 0 0 0
  MIRR 2 0
  DISZ  6.5
  GLAS  ___BLANK 1 0 1.56883 56.06 0 0 0 0 0 0
  DIAM  20.42 1 0 0 1 ""
  POPS 0 0 0 0 0 0 0 0 1 1 1 1 0 0 0 0
SURF 24
  TYPE STANDARD
  CURV -0.0165566011417101 0 0 0 0
  HIDE 0 0 0 0 0 0 0 0 0 0
  MIRR 2 0
  DISZ  20.812
  DIAM  20.42 1 0 0 1 ""
  POPS 0 0 0 0 0 0 0 0 1 1 1 1 0 0 0 0
SURF 25
  TYPE STANDARD
  CURV 0 0 0 0 0
  HIDE 0 0 0 0 0 0 0 0 0 0
  MIRR 2 0
  DISZ  3.2
  GLAS  ___BLANK 1 0 1.51680 64.20 0 0 0 0 0 0
  DIAM  27.9 1 0 0 1 ""
  POPS 0 0 0 0 0 0 0 0 1 1 1 1 0 0 0 0
SURF 26
  TYPE STANDARD
  CURV 0 0 0 0 0
  HIDE 0 0 0 0 0 0 0 0 0 0
  MIRR 2 0
  DISZ  0.02
  DIAM  27.9 1 0 0 1 ""
  POPS 0 0 0 0 0 0 0 0 1 1 1 1 0 0 0 0
SURF 27
  TYPE STANDARD
  CURV 0.0 0 0 0 0 ""
  HIDE 0 0 0 0 0 0 0 0 0 0
  MIRR 2 0
  DISZ 0
  DIAM 27.8 1 0 0 1 ""
  POPS 0 0 0 0 0 0 0 0 1 1 1 1 0 0 0 0
TOL TOFF   0   0              0              0   0 0 0 0
MNUM 2 1
THIC   0   1 1.00E+10 0 0 0 1 1 1 0 0
THIC   0   2 1079.26 0 0 0 1 1 1 0 0
THIC   8   1 6.190 0 0 0 1 1 1 0 0
THIC   8   2 5.791 0 0 0 1 1 1 0 0
THIC   17   1 5.220 0 0 0 1 1 1 0 0
THIC   17   2 5.619 0 0 0 1 1 1 0 0
