VERS 161019 507 33785
MODE SEQ
NAME US 2020 0166730 Example 1 (Fujifilm Fujinon GF50mm F3.5 R LM WR)
NOTE 0 Prepared and converted by Bill Claff.
PFIL 0 0 0
LANG 0
UNIT MM X W X CM MR CPMM
FNUM 3.56 0
ENVD 20 1 0
GFAC 0 0
RAIM 0 2 1 1 0 1 0 0 0
SDMA 0 1 0
FTYP 3 0 3 3 0 0 0
ROPD 2
HYPR 0
PICB 1
XFLN 0 0 0 0 0 0 0 0 0 0 0 0
YFLN 0 19.25 27.5 0 0 0 0 0 0 0 0 0 0
FWGN 1 1 1 1 1 1 1 1 1 1 1 1
VDXN 0 0 0 0 0 0 0 0 0 0 0 0
VDYN 0 0 0 0 0 0 0 0 0 0 0 0
VCXN 0 0 0 0 0 0 0 0 0 0 0 0
VCYN 0 0 0 0 0 0 0 0 0 0 0 0
VANN 0 0 0 0 0 0 0 0 0 0 0 0
WAVM 1 0.4861327 1
WAVM 2 0.5875618 1
WAVM 3 0.6562725 1
WAVM 4 0.550 1
WAVM 5 0.550 1
WAVM 6 0.550 1
WAVM 7 0.550 1
WAVM 8 0.550 1
WAVM 9 0.550 1
WAVM 10 0.550 1
WAVM 11 0.550 1
WAVM 12 0.550 1
WAVM 13 0.550 1
WAVM 14 0.550 1
WAVM 15 0.550 1
WAVM 16 0.550 1
WAVM 17 0.550 1
WAVM 18 0.550 1
WAVM 19 0.550 1
WAVM 20 0.550 1
WAVM 21 0.550 1
WAVM 22 0.550 1
WAVM 23 0.550 1
WAVM 24 0.550 1
PWAV 2
POLS 1 0 1 0 0 1 0
GSTD 0 100 100 100 100 100 100 0 1 1 0 0 1 1 1 1 1 1
NSCD 100 500 0 1.0E-3 5 1.0E-6 0 0 0 0 0 0 1000000 0 2
SURF 0
  TYPE STANDARD
  CURV 0.0 0 0 0 0 ""
  HIDE 0 0 0 0 0 0 0 0 0 0
  MIRR 2 0
  DISZ INFINITY
  DIAM 0 1 0 0 1 ""
  POPS 0 0 0 0 0 0 0 0 1 1 1 1 0 0 0 0
SURF 1
  TYPE STANDARD
  CURV 0.0124934409435047 0 0 0 0
  HIDE 0 0 0 0 0 0 0 0 0 0
  MIRR 2 0
  DISZ  1.03
  GLAS  ___BLANK 1 0 1.64769 33.84 0 0 0 0 0 0
  DIAM  10.045 1 0 0 1 ""
  POPS 0 0 0 0 0 0 0 0 1 1 1 1 0 0 0 0
SURF 2
  TYPE STANDARD
  CURV 0.0623596906959341 0 0 0 0
  HIDE 0 0 0 0 0 0 0 0 0 0
  MIRR 2 0
  DISZ  3.44
  GLAS  ___BLANK 1 0 1.87070 40.73 0 0 0 0 0 0
  DIAM  8.28 1 0 0 1 ""
  POPS 0 0 0 0 0 0 0 0 1 1 1 1 0 0 0 0
SURF 3
  TYPE STANDARD
  CURV 0.0110305878200249 0 0 0 0
  HIDE 0 0 0 0 0 0 0 0 0 0
  MIRR 2 0
  DISZ  3.21
  DIAM  8.28 1 0 0 1 ""
  POPS 0 0 0 0 0 0 0 0 1 1 1 1 0 0 0 0
SURF 4
  STOP
  TYPE STANDARD
  CURV 0 0 0 0 0
  HIDE 0 0 0 0 0 0 0 0 0 0
  MIRR 2 0
  DISZ  6.76
  DIAM  6.55 1 0 0 1 ""
  POPS 0 0 0 0 0 0 0 0 1 1 1 1 0 0 0 0
SURF 5
  TYPE STANDARD
  CURV -0.0342325071888265 0 0 0 0
  HIDE 0 0 0 0 0 0 0 0 0 0
  MIRR 2 0
  DISZ  1.01
  GLAS  ___BLANK 1 0 1.61293 37.01 0 0 0 0 0 0
  DIAM  6.85 1 0 0 1 ""
  POPS 0 0 0 0 0 0 0 0 1 1 1 1 0 0 0 0
SURF 6
  TYPE STANDARD
  CURV 0.0471787129647103 0 0 0 0
  HIDE 0 0 0 0 0 0 0 0 0 0
  MIRR 2 0
  DISZ  3.89
  GLAS  ___BLANK 1 0 1.88300 39.22 0 0 0 0 0 0
  DIAM  8.315 1 0 0 1 ""
  POPS 0 0 0 0 0 0 0 0 1 1 1 1 0 0 0 0
SURF 7
  TYPE STANDARD
  CURV -0.0329218106995885 0 0 0 0
  HIDE 0 0 0 0 0 0 0 0 0 0
  MIRR 2 0
  DISZ  1
  DIAM  8.485 1 0 0 1 ""
  POPS 0 0 0 0 0 0 0 0 1 1 1 1 0 0 0 0
SURF 8
  TYPE STANDARD
  CURV -0.0604010630587098 0 0 0 0
  HIDE 0 0 0 0 0 0 0 0 0 0
  MIRR 2 0
  DISZ  1.05
  GLAS  ___BLANK 1 0 1.54814 45.83 0 0 0 0 0 0
  DIAM  7.885 1 0 0 1 ""
  POPS 0 0 0 0 0 0 0 0 1 1 1 1 0 0 0 0
SURF 9
  TYPE STANDARD
  CURV 0.0221488848036501 0 0 0 0
  HIDE 0 0 0 0 0 0 0 0 0 0
  MIRR 2 0
  DISZ  5.26
  GLAS  ___BLANK 1 0 1.65160 58.55 0 0 0 0 0 0
  DIAM  10.045 1 0 0 1 ""
  POPS 0 0 0 0 0 0 0 0 1 1 1 1 0 0 0 0
SURF 10
  TYPE STANDARD
  CURV -0.0533589456272344 0 0 0 0
  HIDE 0 0 0 0 0 0 0 0 0 0
  MIRR 2 0
  DISZ  1.19
  DIAM  10.225 1 0 0 1 ""
  POPS 0 0 0 0 0 0 0 0 1 1 1 1 0 0 0 0
SURF 11
  TYPE XOSPHERE
  CURV -0.0451854864217613 0 0 0 0
  HIDE 0 0 0 0 0 0 0 0 0 0
  MIRR 2 0
  XDAT 1 20 0 0 1 0 0 ""
  XDAT 2 1 0 0 1 0 0 ""
  XDAT 3 0 0 0 1 0 0 ""
  XDAT 4 0 0 0 1 0 0 ""
  XDAT 5 0 0 0 1 0 0 ""
  XDAT 6 6.9329378E-05 0 0 1 0 0 ""
  XDAT 7 -1.1194555E-05 0 0 1 0 0 ""
  XDAT 8 1.0209655E-06 0 0 1 0 0 ""
  XDAT 9 4.7100190E-08 0 0 1 0 0 ""
  XDAT 10 -4.7484147E-09 0 0 1 0 0 ""
  XDAT 11 -3.7046349E-10 0 0 1 0 0 ""
  XDAT 12 -1.6184739E-11 0 0 1 0 0 ""
  XDAT 13 2.1199506E-12 0 0 1 0 0 ""
  XDAT 14 1.9561961E-13 0 0 1 0 0 ""
  XDAT 15 5.5631129E-15 0 0 1 0 0 ""
  XDAT 16 -2.0998957E-16 0 0 1 0 0 ""
  XDAT 17 1.0517148E-16 0 0 1 0 0 ""
  XDAT 18 -1.6198261E-17 0 0 1 0 0 ""
  XDAT 19 -3.1633953E-18 0 0 1 0 0 ""
  XDAT 20 3.6331743E-19 0 0 1 0 0 ""
  XDAT 21 -8.3331366E-21 0 0 1 0 0 ""
  XDAT 22 2.3412194E-23 0 0 1 0 0 ""
  DISZ  1.5
  CONI  0
  GLAS  ___BLANK 1 0 1.77250 49.50 0 0 0 0 0 0
  DIAM  10.855 1 0 0 1 ""
  POPS 0 0 0 0 0 0 0 0 1 1 1 1 0 0 0 0
SURF 12
  TYPE XOSPHERE
  CURV -0.0399872040946897 0 0 0 0
  HIDE 0 0 0 0 0 0 0 0 0 0
  MIRR 2 0
  XDAT 1 20 0 0 1 0 0 ""
  XDAT 2 1 0 0 1 0 0 ""
  XDAT 3 0 0 0 1 0 0 ""
  XDAT 4 0 0 0 1 0 0 ""
  XDAT 5 0 0 0 1 0 0 ""
  XDAT 6 9.3215004E-05 0 0 1 0 0 ""
  XDAT 7 -1.5152273E-05 0 0 1 0 0 ""
  XDAT 8 1.6898484E-06 0 0 1 0 0 ""
  XDAT 9 1.1019899E-08 0 0 1 0 0 ""
  XDAT 10 -5.9591306E-09 0 0 1 0 0 ""
  XDAT 11 -3.7120650E-10 0 0 1 0 0 ""
  XDAT 12 8.5503067E-12 0 0 1 0 0 ""
  XDAT 13 2.0154094E-12 0 0 1 0 0 ""
  XDAT 14 2.1470193E-13 0 0 1 0 0 ""
  XDAT 15 5.7714951E-15 0 0 1 0 0 ""
  XDAT 16 -8.4918900E-16 0 0 1 0 0 ""
  XDAT 17 -1.6311106E-16 0 0 1 0 0 ""
  XDAT 18 -5.2589862E-18 0 0 1 0 0 ""
  XDAT 19 -2.6370718E-20 0 0 1 0 0 ""
  XDAT 20 -1.6585141E-20 0 0 1 0 0 ""
  XDAT 21 2.6087053E-20 0 0 1 0 0 ""
  XDAT 22 -1.4985752E-21 0 0 1 0 0 ""
  DISZ  5.46
  CONI  0
  DIAM  11.89 1 0 0 1 ""
  POPS 0 0 0 0 0 0 0 0 1 1 1 1 0 0 0 0
SURF 13
  TYPE STANDARD
  CURV -0.0410829464689208 0 0 0 0
  HIDE 0 0 0 0 0 0 0 0 0 0
  MIRR 2 0
  DISZ  3.63
  GLAS  ___BLANK 1 0 1.84667 23.79 0 0 0 0 0 0
  DIAM  12.735 1 0 0 1 ""
  POPS 0 0 0 0 0 0 0 0 1 1 1 1 0 0 0 0
SURF 14
  TYPE STANDARD
  CURV -0.00851005888960752 0 0 0 0
  HIDE 0 0 0 0 0 0 0 0 0 0
  MIRR 2 0
  DISZ  4.62
  DIAM  16.09 1 0 0 1 ""
  POPS 0 0 0 0 0 0 0 0 1 1 1 1 0 0 0 0
SURF 15
  TYPE STANDARD
  CURV 0 0 0 0 0
  HIDE 0 0 0 0 0 0 0 0 0 0
  MIRR 2 0
  DISZ  4.86
  GLAS  ___BLANK 1 0 2.00100 29.13 0 0 0 0 0 0
  DIAM  21.545 1 0 0 1 ""
  POPS 0 0 0 0 0 0 0 0 1 1 1 1 0 0 0 0
SURF 16
  TYPE STANDARD
  CURV -0.0159892552204918 0 0 0 0
  HIDE 0 0 0 0 0 0 0 0 0 0
  MIRR 2 0
  DISZ  18.83
  DIAM  21.545 1 0 0 1 ""
  POPS 0 0 0 0 0 0 0 0 1 1 1 1 0 0 0 0
SURF 17
  TYPE STANDARD
  CURV 0 0 0 0 0
  HIDE 0 0 0 0 0 0 0 0 0 0
  MIRR 2 0
  DISZ  2.85
  GLAS  ___BLANK 1 0 1.51680 64.20 0 0 0 0 0 0
  DIAM  30.105 1 0 0 1 ""
  POPS 0 0 0 0 0 0 0 0 1 1 1 1 0 0 0 0
SURF 18
  TYPE STANDARD
  CURV 0 0 0 0 0
  HIDE 0 0 0 0 0 0 0 0 0 0
  MIRR 2 0
  DISZ  1.31
  DIAM  30.105 1 0 0 1 ""
  POPS 0 0 0 0 0 0 0 0 1 1 1 1 0 0 0 0
SURF 19
  TYPE STANDARD
  CURV 0.0 0 0 0 0 ""
  HIDE 0 0 0 0 0 0 0 0 0 0
  MIRR 2 0
  DISZ 0
  DIAM 27.5 1 0 0 1 ""
  POPS 0 0 0 0 0 0 0 0 1 1 1 1 0 0 0 0
TOL TOFF   0   0              0              0   0 0 0 0
MNUM 2 1
THIC   0   1 1.00E+10 0 0 0 1 1 1 0 0
THIC   0   2 2000 0 0 0 1 1 1 0 0
THIC   4   1 6.76 0 0 0 1 1 1 0 0
THIC   4   2 6.03 0 0 0 1 1 1 0 0
THIC   12   1 5.46 0 0 0 1 1 1 0 0
THIC   12   2 6.19 0 0 0 1 1 1 0 0
