VERS 161019 507 33785
MODE SEQ
NAME US 10,191,246 Example 1 (Fujifilm Fujinon GF32-64mm F4 R LM WR)
NOTE 0 Prepared and converted by Bill Claff.
PFIL 0 0 0
LANG 0
UNIT MM X W X CM MR CPMM
FLOA
ENVD 20 1 0
GFAC 0 0
RAIM 0 2 1 1 0 1 0 0 0
SDMA 0 1 0
FTYP 3 0 3 3 0 0 0
ROPD 2
HYPR 0
PICB 1
XFLN 0 0 0 0 0 0 0 0 0 0 0 0
YFLN 0 19.173 27.39 0 0 0 0 0 0 0 0 0 0
FWGN 1 1 1 1 1 1 1 1 1 1 1 1
VDXN 0 0 0 0 0 0 0 0 0 0 0 0
VDYN 0 0 0 0 0 0 0 0 0 0 0 0
VCXN 0 0 0 0 0 0 0 0 0 0 0 0
VCYN 0 0 0 0 0 0 0 0 0 0 0 0
VANN 0 0 0 0 0 0 0 0 0 0 0 0
WAVM 1 0.4861327 1
WAVM 2 0.5875618 1
WAVM 3 0.6562725 1
WAVM 4 0.550 1
WAVM 5 0.550 1
WAVM 6 0.550 1
WAVM 7 0.550 1
WAVM 8 0.550 1
WAVM 9 0.550 1
WAVM 10 0.550 1
WAVM 11 0.550 1
WAVM 12 0.550 1
WAVM 13 0.550 1
WAVM 14 0.550 1
WAVM 15 0.550 1
WAVM 16 0.550 1
WAVM 17 0.550 1
WAVM 18 0.550 1
WAVM 19 0.550 1
WAVM 20 0.550 1
WAVM 21 0.550 1
WAVM 22 0.550 1
WAVM 23 0.550 1
WAVM 24 0.550 1
PWAV 2
POLS 1 0 1 0 0 1 0
GSTD 0 100 100 100 100 100 100 0 1 1 0 0 1 1 1 1 1 1
NSCD 100 500 0 1.0E-3 5 1.0E-6 0 0 0 0 0 0 1000000 0 2
SURF 0
  TYPE STANDARD
  CURV 0.0 0 0 0 0 ""
  HIDE 0 0 0 0 0 0 0 0 0 0
  MIRR 2 0
  DISZ INFINITY
  DIAM 0 1 0 0 1 ""
  POPS 0 0 0 0 0 0 0 0 1 1 1 1 0 0 0 0
SURF 1
  TYPE STANDARD
  CURV 0.013726609856804 0 0 0 0
  HIDE 0 0 0 0 0 0 0 0 0 0
  MIRR 2 0
  DISZ  1.7
  GLAS  ___BLANK 1 0 1.89286 20.36 0 0 0 0 0 0
  DIAM  32.3 1 0 0 1 ""
  POPS 0 0 0 0 0 0 0 0 1 1 1 1 0 0 0 0
SURF 2
  TYPE STANDARD
  CURV 0.0197083169097359 0 0 0 0
  HIDE 0 0 0 0 0 0 0 0 0 0
  MIRR 2 0
  DISZ  7.9
  GLAS  ___BLANK 1 0 1.83481 42.72 0 0 0 0 0 0
  DIAM  30.38 1 0 0 1 ""
  POPS 0 0 0 0 0 0 0 0 1 1 1 1 0 0 0 0
SURF 3
  TYPE STANDARD
  CURV 0.00591422714653917 0 0 0 0
  HIDE 0 0 0 0 0 0 0 0 0 0
  MIRR 2 0
  DISZ  0.63
  DIAM  27.53 1 0 0 1 ""
  POPS 0 0 0 0 0 0 0 0 1 1 1 1 0 0 0 0
SURF 4
  TYPE STANDARD
  CURV 0.0109551343428124 0 0 0 0
  HIDE 0 0 0 0 0 0 0 0 0 0
  MIRR 2 0
  DISZ  1.35
  GLAS  ___BLANK 1 0 1.81600 46.62 0 0 0 0 0 0
  DIAM  22.6 1 0 0 1 ""
  POPS 0 0 0 0 0 0 0 0 1 1 1 1 0 0 0 0
SURF 5
  TYPE STANDARD
  CURV 0.0485885039599631 0 0 0 0
  HIDE 0 0 0 0 0 0 0 0 0 0
  MIRR 2 0
  DISZ  0.49
  GLAS  ___BLANK 1 0 1.51876 54.04 0 0 0 0 0 0
  DIAM  17.575 1 0 0 1 ""
  POPS 0 0 0 0 0 0 0 0 1 1 1 1 0 0 0 0
SURF 6
  TYPE XOSPHERE
  CURV 0.0538204442339467 0 0 0 0
  HIDE 0 0 0 0 0 0 0 0 0 0
  MIRR 2 0
  XDAT 1 16 0 0 1 0 0 ""
  XDAT 2 1 0 0 1 0 0 ""
  XDAT 3 0 0 0 1 0 0 ""
  XDAT 4 0 0 0 1 0 0 ""
  XDAT 5 0 0 0 1 0 0 ""
  XDAT 6 -3.9131873E-06 0 0 1 0 0 ""
  XDAT 7 4.5804164E-06 0 0 1 0 0 ""
  XDAT 8 -3.1297225E-06 0 0 1 0 0 ""
  XDAT 9 9.4449056E-07 0 0 1 0 0 ""
  XDAT 10 -1.5568669E-07 0 0 1 0 0 ""
  XDAT 11 1.4171414E-08 0 0 1 0 0 ""
  XDAT 12 -5.7106822E-10 0 0 1 0 0 ""
  XDAT 13 -7.9068908E-12 0 0 1 0 0 ""
  XDAT 14 1.1114447E-12 0 0 1 0 0 ""
  XDAT 15 5.8869099E-14 0 0 1 0 0 ""
  XDAT 16 -8.6533992E-15 0 0 1 0 0 ""
  XDAT 17 3.3406257E-16 0 0 1 0 0 ""
  XDAT 18 -4.5375705E-18 0 0 1 0 0 ""
  DISZ  13.26
  CONI  -0.36085393
  DIAM  17.575 1 0 0 1 ""
  POPS 0 0 0 0 0 0 0 0 1 1 1 1 0 0 0 0
SURF 7
  TYPE STANDARD
  CURV -0.0144058176453979 0 0 0 0
  HIDE 0 0 0 0 0 0 0 0 0 0
  MIRR 2 0
  DISZ  1.24
  GLAS  ___BLANK 1 0 1.54072 47.23 0 0 0 0 0 0
  DIAM  14.2 1 0 0 1 ""
  POPS 0 0 0 0 0 0 0 0 1 1 1 1 0 0 0 0
SURF 8
  TYPE STANDARD
  CURV 0.0290478126997037 0 0 0 0
  HIDE 0 0 0 0 0 0 0 0 0 0
  MIRR 2 0
  DISZ  5.38
  GLAS  ___BLANK 1 0 1.85478 24.80 0 0 0 0 0 0
  DIAM  15.37 1 0 0 1 ""
  POPS 0 0 0 0 0 0 0 0 1 1 1 1 0 0 0 0
SURF 9
  TYPE STANDARD
  CURV -0.00509512081040954 0 0 0 0
  HIDE 0 0 0 0 0 0 0 0 0 0
  MIRR 2 0
  DISZ  7.2745
  DIAM  15.37 1 0 0 1 ""
  POPS 0 0 0 0 0 0 0 0 1 1 1 1 0 0 0 0
SURF 10
  TYPE STANDARD
  CURV -0.0252743531029323 0 0 0 0
  HIDE 0 0 0 0 0 0 0 0 0 0
  MIRR 2 0
  DISZ  1.2
  GLAS  ___BLANK 1 0 1.63930 44.87 0 0 0 0 0 0
  DIAM  12.84 1 0 0 1 ""
  POPS 0 0 0 0 0 0 0 0 1 1 1 1 0 0 0 0
SURF 11
  TYPE STANDARD
  CURV -0.00966959945618173 0 0 0 0
  HIDE 0 0 0 0 0 0 0 0 0 0
  MIRR 2 0
  DISZ  13.58
  DIAM  10.4 1 0 0 1 ""
  POPS 0 0 0 0 0 0 0 0 1 1 1 1 0 0 0 0
SURF 12
  TYPE STANDARD
  CURV 0.0449800063871609 0 0 0 0
  HIDE 0 0 0 0 0 0 0 0 0 0
  MIRR 2 0
  DISZ  6.08
  GLAS  ___BLANK 1 0 1.43875 94.66 0 0 0 0 0 0
  DIAM  12.16 1 0 0 1 ""
  POPS 0 0 0 0 0 0 0 0 1 1 1 1 0 0 0 0
SURF 13
  TYPE STANDARD
  CURV -0.020037751123116 0 0 0 0
  HIDE 0 0 0 0 0 0 0 0 0 0
  MIRR 2 0
  DISZ  1.9073
  DIAM  12.16 1 0 0 1 ""
  POPS 0 0 0 0 0 0 0 0 1 1 1 1 0 0 0 0
SURF 14
  STOP
  TYPE STANDARD
  CURV 0 0 0 0 0
  HIDE 0 0 0 0 0 0 0 0 0 0
  MIRR 2 0
  DISZ  3.99
  DIAM  7.465 1 0 0 1 ""
  POPS 0 0 0 0 0 0 0 0 1 1 1 1 0 0 0 0
SURF 15
  TYPE XOSPHERE
  CURV -0.00615450894711738 0 0 0 0
  HIDE 0 0 0 0 0 0 0 0 0 0
  MIRR 2 0
  XDAT 1 16 0 0 1 0 0 ""
  XDAT 2 1 0 0 1 0 0 ""
  XDAT 3 0 0 0 1 0 0 ""
  XDAT 4 0 0 0 1 0 0 ""
  XDAT 5 0 0 0 1 0 0 ""
  XDAT 6 -5.2024485E-05 0 0 1 0 0 ""
  XDAT 7 -2.7661214E-06 0 0 1 0 0 ""
  XDAT 8 7.5084016E-07 0 0 1 0 0 ""
  XDAT 9 1.2757000E-08 0 0 1 0 0 ""
  XDAT 10 -2.0219615E-08 0 0 1 0 0 ""
  XDAT 11 2.7042830E-09 0 0 1 0 0 ""
  XDAT 12 -7.6987177E-11 0 0 1 0 0 ""
  XDAT 13 -1.4247514E-11 0 0 1 0 0 ""
  XDAT 14 2.2494370E-12 0 0 1 0 0 ""
  XDAT 15 -3.0551706E-13 0 0 1 0 0 ""
  XDAT 16 3.2364995E-14 0 0 1 0 0 ""
  XDAT 17 -1.7933891E-15 0 0 1 0 0 ""
  XDAT 18 3.8285431E-17 0 0 1 0 0 ""
  DISZ  1.96
  CONI  1.0444902
  GLAS  ___BLANK 1 0 1.58313 59.38 0 0 0 0 0 0
  DIAM  11.88 1 0 0 1 ""
  POPS 0 0 0 0 0 0 0 0 1 1 1 1 0 0 0 0
SURF 16
  TYPE XOSPHERE
  CURV 0.00380118292812723 0 0 0 0
  HIDE 0 0 0 0 0 0 0 0 0 0
  MIRR 2 0
  XDAT 1 16 0 0 1 0 0 ""
  XDAT 2 1 0 0 1 0 0 ""
  XDAT 3 0 0 0 1 0 0 ""
  XDAT 4 0 0 0 1 0 0 ""
  XDAT 5 0 0 0 1 0 0 ""
  XDAT 6 -8.6421047E-06 0 0 1 0 0 ""
  XDAT 7 -1.6968009E-06 0 0 1 0 0 ""
  XDAT 8 1.3758671E-07 0 0 1 0 0 ""
  XDAT 9 2.3656995E-07 0 0 1 0 0 ""
  XDAT 10 -4.9230907E-08 0 0 1 0 0 ""
  XDAT 11 8.3812853E-10 0 0 1 0 0 ""
  XDAT 12 1.1346146E-09 0 0 1 0 0 ""
  XDAT 13 -1.7021691E-10 0 0 1 0 0 ""
  XDAT 14 3.7163422E-12 0 0 1 0 0 ""
  XDAT 15 1.5386536E-12 0 0 1 0 0 ""
  XDAT 16 -1.9495772E-13 0 0 1 0 0 ""
  XDAT 17 1.0133432E-14 0 0 1 0 0 ""
  XDAT 18 -2.0715032E-16 0 0 1 0 0 ""
  DISZ  2.52
  CONI  -5.8176737
  DIAM  11.88 1 0 0 1 ""
  POPS 0 0 0 0 0 0 0 0 1 1 1 1 0 0 0 0
SURF 17
  TYPE STANDARD
  CURV 0 0 0 0 0
  HIDE 0 0 0 0 0 0 0 0 0 0
  MIRR 2 0
  DISZ  1.3
  GLAS  ___BLANK 1 0 1.69895 30.13 0 0 0 0 0 0
  DIAM  11.68 1 0 0 1 ""
  POPS 0 0 0 0 0 0 0 0 1 1 1 1 0 0 0 0
SURF 18
  TYPE STANDARD
  CURV 0.0192557646945554 0 0 0 0
  HIDE 0 0 0 0 0 0 0 0 0 0
  MIRR 2 0
  DISZ  3.1846
  DIAM  9.6 1 0 0 1 ""
  POPS 0 0 0 0 0 0 0 0 1 1 1 1 0 0 0 0
SURF 19
  TYPE STANDARD
  CURV 0.0198357992537772 0 0 0 0
  HIDE 0 0 0 0 0 0 0 0 0 0
  MIRR 2 0
  DISZ  1.42
  GLAS  ___BLANK 1 0 1.53172 48.84 0 0 0 0 0 0
  DIAM  13.04 1 0 0 1 ""
  POPS 0 0 0 0 0 0 0 0 1 1 1 1 0 0 0 0
SURF 20
  TYPE STANDARD
  CURV 0.0353857041755131 0 0 0 0
  HIDE 0 0 0 0 0 0 0 0 0 0
  MIRR 2 0
  DISZ  8.26
  GLAS  ___BLANK 1 0 1.49700 81.54 0 0 0 0 0 0
  DIAM  13.04 1 0 0 1 ""
  POPS 0 0 0 0 0 0 0 0 1 1 1 1 0 0 0 0
SURF 21
  TYPE STANDARD
  CURV -0.0479793496878943 0 0 0 0
  HIDE 0 0 0 0 0 0 0 0 0 0
  MIRR 2 0
  DISZ  2.11
  DIAM  11.44 1 0 0 1 ""
  POPS 0 0 0 0 0 0 0 0 1 1 1 1 0 0 0 0
SURF 22
  TYPE XOSPHERE
  CURV 0.0127256901141749 0 0 0 0
  HIDE 0 0 0 0 0 0 0 0 0 0
  MIRR 2 0
  XDAT 1 16 0 0 1 0 0 ""
  XDAT 2 1 0 0 1 0 0 ""
  XDAT 3 0 0 0 1 0 0 ""
  XDAT 4 0 0 0 1 0 0 ""
  XDAT 5 0 0 0 1 0 0 ""
  XDAT 6 7.4535777E-06 0 0 1 0 0 ""
  XDAT 7 -9.1821053E-07 0 0 1 0 0 ""
  XDAT 8 -2.4598177E-08 0 0 1 0 0 ""
  XDAT 9 2.3689478E-08 0 0 1 0 0 ""
  XDAT 10 3.7426690E-10 0 0 1 0 0 ""
  XDAT 11 -3.6042983E-10 0 0 1 0 0 ""
  XDAT 12 1.7103438E-13 0 0 1 0 0 ""
  XDAT 13 6.4767682E-12 0 0 1 0 0 ""
  XDAT 14 -8.0354289E-13 0 0 1 0 0 ""
  XDAT 15 4.7122771E-14 0 0 1 0 0 ""
  XDAT 16 -1.2339622E-15 0 0 1 0 0 ""
  XDAT 17 -4.4927986E-18 0 0 1 0 0 ""
  XDAT 18 6.6243103E-19 0 0 1 0 0 ""
  DISZ  4.85
  CONI  -4.5044309
  GLAS  ___BLANK 1 0 1.58313 59.38 0 0 0 0 0 0
  DIAM  15.53 1 0 0 1 ""
  POPS 0 0 0 0 0 0 0 0 1 1 1 1 0 0 0 0
SURF 23
  TYPE XOSPHERE
  CURV 0.0265874714517025 0 0 0 0
  HIDE 0 0 0 0 0 0 0 0 0 0
  MIRR 2 0
  XDAT 1 16 0 0 1 0 0 ""
  XDAT 2 1 0 0 1 0 0 ""
  XDAT 3 0 0 0 1 0 0 ""
  XDAT 4 0 0 0 1 0 0 ""
  XDAT 5 0 0 0 1 0 0 ""
  XDAT 6 1.1844063E-05 0 0 1 0 0 ""
  XDAT 7 -2.2795946E-06 0 0 1 0 0 ""
  XDAT 8 2.0258403E-07 0 0 1 0 0 ""
  XDAT 9 4.9969989E-08 0 0 1 0 0 ""
  XDAT 10 -1.4814706E-08 0 0 1 0 0 ""
  XDAT 11 1.3215336E-09 0 0 1 0 0 ""
  XDAT 12 8.2362757E-11 0 0 1 0 0 ""
  XDAT 13 -2.5026104E-11 0 0 1 0 0 ""
  XDAT 14 1.3313954E-12 0 0 1 0 0 ""
  XDAT 15 6.5305118E-14 0 0 1 0 0 ""
  XDAT 16 -9.6886207E-15 0 0 1 0 0 ""
  XDAT 17 3.6316399E-16 0 0 1 0 0 ""
  XDAT 18 -4.4122167E-18 0 0 1 0 0 ""
  DISZ  13.42
  CONI  -0.60980294
  DIAM  12.12 1 0 0 1 ""
  POPS 0 0 0 0 0 0 0 0 1 1 1 1 0 0 0 0
SURF 24
  TYPE STANDARD
  CURV -0.0571977669991764 0 0 0 0
  HIDE 0 0 0 0 0 0 0 0 0 0
  MIRR 2 0
  DISZ  1.2
  GLAS  ___BLANK 1 0 1.85026 32.27 0 0 0 0 0 0
  DIAM  14.51 1 0 0 1 ""
  POPS 0 0 0 0 0 0 0 0 1 1 1 1 0 0 0 0
SURF 25
  TYPE STANDARD
  CURV -0.0383965596682537 0 0 0 0
  HIDE 0 0 0 0 0 0 0 0 0 0
  MIRR 2 0
  DISZ  1
  DIAM  16.76 1 0 0 1 ""
  POPS 0 0 0 0 0 0 0 0 1 1 1 1 0 0 0 0
SURF 26
  TYPE STANDARD
  CURV -0.00990171557123987 0 0 0 0
  HIDE 0 0 0 0 0 0 0 0 0 0
  MIRR 2 0
  DISZ  5.27
  GLAS  ___BLANK 1 0 1.91082 35.25 0 0 0 0 0 0
  DIAM  25.7 1 0 0 1 ""
  POPS 0 0 0 0 0 0 0 0 1 1 1 1 0 0 0 0
SURF 27
  TYPE STANDARD
  CURV -0.0210876148220627 0 0 0 0
  HIDE 0 0 0 0 0 0 0 0 0 0
  MIRR 2 0
  DISZ  25.8035
  DIAM  25.7 1 0 0 1 ""
  POPS 0 0 0 0 0 0 0 0 1 1 1 1 0 0 0 0
SURF 28
  TYPE STANDARD
  CURV 0 0 0 0 0
  HIDE 0 0 0 0 0 0 0 0 0 0
  MIRR 2 0
  DISZ  3.25
  GLAS  ___BLANK 1 0 1.51680 64.20 0 0 0 0 0 0
  DIAM  28.71 1 0 0 1 ""
  POPS 0 0 0 0 0 0 0 0 1 1 1 1 0 0 0 0
SURF 29
  TYPE STANDARD
  CURV 0 0 0 0 0
  HIDE 0 0 0 0 0 0 0 0 0 0
  MIRR 2 0
  DISZ  0
  DIAM  28.71 1 0 0 1 ""
  POPS 0 0 0 0 0 0 0 0 1 1 1 1 0 0 0 0
SURF 30
  TYPE STANDARD
  CURV 0.0 0 0 0 0 ""
  HIDE 0 0 0 0 0 0 0 0 0 0
  MIRR 2 0
  DISZ 0
  DIAM 27.39 1 0 0 1 ""
  POPS 0 0 0 0 0 0 0 0 1 1 1 1 0 0 0 0
TOL TOFF   0   0              0              0   0 0 0 0
MNUM 3 1
SDIA   14   1 7.465 0 0 0 1 1 1 0 0
SDIA   14   2 8.7935 0 0 0 1 1 1 0 0
SDIA   14   3 9.9845 0 0 0 1 1 1 0 0
THIC   3   1 0.63 0 0 0 1 1 1 0 0
THIC   3   2 7.56 0 0 0 1 1 1 0 0
THIC   3   3 21.06 0 0 0 1 1 1 0 0
THIC   11   1 13.58 0 0 0 1 1 1 0 0
THIC   11   2 6.61 0 0 0 1 1 1 0 0
THIC   11   3 1.73 0 0 0 1 1 1 0 0
THIC   21   1 2.11 0 0 0 1 1 1 0 0
THIC   21   2 3.56 0 0 0 1 1 1 0 0
THIC   21   3 4.97 0 0 0 1 1 1 0 0
THIC   25   1 1.00 0 0 0 1 1 1 0 0
THIC   25   2 10.85 0 0 0 1 1 1 0 0
THIC   25   3 18.98 0 0 0 1 1 1 0 0
