VERS 161019 507 33785
MODE SEQ
NAME US 2018/0196240 Example 11 (Nikon 1 Nikkor VR 10-30mm f/3.5-5.6 PD-Zoom)
NOTE 0 Prepared and converted by Bill Claff.
PFIL 0 0 0
LANG 0
UNIT MM X W X CM MR CPMM
FNUM 3.6 0
ENVD 20 1 0
GFAC 0 0
RAIM 0 2 1 1 0 1 0 0 0
SDMA 0 1 0
FTYP 3 0 3 3 0 0 0
ROPD 2
HYPR 0
PICB 1
XFLN 0 0 0 0 0 0 0 0 0 0 0 0
YFLN 0 5.733 8.19 0 0 0 0 0 0 0 0 0 0
FWGN 1 1 1 1 1 1 1 1 1 1 1 1
VDXN 0 0 0 0 0 0 0 0 0 0 0 0
VDYN 0 0 0 0 0 0 0 0 0 0 0 0
VCXN 0 0 0 0 0 0 0 0 0 0 0 0
VCYN 0 0 0 0 0 0 0 0 0 0 0 0
VANN 0 0 0 0 0 0 0 0 0 0 0 0
WAVM 1 0.4861327 1
WAVM 2 0.5875618 1
WAVM 3 0.6562725 1
WAVM 4 0.550 1
WAVM 5 0.550 1
WAVM 6 0.550 1
WAVM 7 0.550 1
WAVM 8 0.550 1
WAVM 9 0.550 1
WAVM 10 0.550 1
WAVM 11 0.550 1
WAVM 12 0.550 1
WAVM 13 0.550 1
WAVM 14 0.550 1
WAVM 15 0.550 1
WAVM 16 0.550 1
WAVM 17 0.550 1
WAVM 18 0.550 1
WAVM 19 0.550 1
WAVM 20 0.550 1
WAVM 21 0.550 1
WAVM 22 0.550 1
WAVM 23 0.550 1
WAVM 24 0.550 1
PWAV 2
POLS 1 0 1 0 0 1 0
GSTD 0 100 100 100 100 100 100 0 1 1 0 0 1 1 1 1 1 1
NSCD 100 500 0 1.0E-3 5 1.0E-6 0 0 0 0 0 0 1000000 0 2
SURF 0
  TYPE STANDARD
  CURV 0.0 0 0 0 0 ""
  HIDE 0 0 0 0 0 0 0 0 0 0
  MIRR 2 0
  DISZ INFINITY
  DIAM 0 1 0 0 1 ""
  POPS 0 0 0 0 0 0 0 0 1 1 1 1 0 0 0 0
SURF 1
  TYPE STANDARD
  CURV 0.00758000697360642 0 0 0 0
  HIDE 0 0 0 0 0 0 0 0 0 0
  MIRR 2 0
  DISZ  0.8
  GLAS  ___BLANK 1 0 1.618 63.3 0 0 0 0 0 0
  DIAM  9.19 1 0 0 1 ""
  POPS 0 0 0 0 0 0 0 0 1 1 1 1 0 0 0 0
SURF 2
  TYPE STANDARD
  CURV 0.101142914938809 0 0 0 0
  HIDE 0 0 0 0 0 0 0 0 0 0
  MIRR 2 0
  DISZ  2.207
  DIAM  7.24 1 0 0 1 ""
  POPS 0 0 0 0 0 0 0 0 1 1 1 1 0 0 0 0
SURF 3
  TYPE EVENASPH
  CURV 0.0436700292589196 0 0 0 0
  HIDE 0 0 0 0 0 0 0 0 0 0
  MIRR 2 0
  PARM 1 0
  PARM 2 -3.833E-04
  PARM 3 9.067E-06
  PARM 4 -6.487E-08
  PARM 5 7.866E-11
  PARM 6 0
  PARM 7 0
  PARM 8 0
  DISZ  1
  CONI  0
  GLAS  ___BLANK 1 0 1.623 58.2 0 0 0 0 0 0
  DIAM  7.24 1 0 0 1 ""
  POPS 0 0 0 0 0 0 0 0 1 1 1 1 0 0 0 0
SURF 4
  TYPE EVENASPH
  CURV 0.110023104852019 0 0 0 0
  HIDE 0 0 0 0 0 0 0 0 0 0
  MIRR 2 0
  PARM 1 0
  PARM 2 -5.554E-04
  PARM 3 8.416E-06
  PARM 4 -3.144E-08
  PARM 5 -7.595E-10
  PARM 6 0
  PARM 7 0
  PARM 8 0
  DISZ  0.862
  CONI  0
  DIAM  6.595 1 0 0 1 ""
  POPS 0 0 0 0 0 0 0 0 1 1 1 1 0 0 0 0
SURF 5
  TYPE STANDARD
  CURV 0.0862515094014145 0 0 0 0
  HIDE 0 0 0 0 0 0 0 0 0 0
  MIRR 2 0
  DISZ  1.892
  GLAS  ___BLANK 1 0 2.001 25.5 0 0 0 0 0 0
  DIAM  7.03 1 0 0 1 ""
  POPS 0 0 0 0 0 0 0 0 1 1 1 1 0 0 0 0
SURF 6
  TYPE STANDARD
  CURV 0.0570939194975735 0 0 0 0
  HIDE 0 0 0 0 0 0 0 0 0 0
  MIRR 2 0
  DISZ  18.51
  DIAM  6.29 1 0 0 1 ""
  POPS 0 0 0 0 0 0 0 0 1 1 1 1 0 0 0 0
SURF 7
  TYPE EVENASPH
  CURV 0.063552589768033 0 0 0 0
  HIDE 0 0 0 0 0 0 0 0 0 0
  MIRR 2 0
  PARM 1 0
  PARM 2 -6.517E-05
  PARM 3 -1.259E-06
  PARM 4 3.629E-08
  PARM 5 8.838E-11
  PARM 6 0
  PARM 7 0
  PARM 8 0
  DISZ  3.218
  CONI  0
  GLAS  ___BLANK 1 0 1.619 63.9 0 0 0 0 0 0
  DIAM  4.48 1 0 0 1 ""
  POPS 0 0 0 0 0 0 0 0 1 1 1 1 0 0 0 0
SURF 8
  TYPE STANDARD
  CURV -0.0917094644167278 0 0 0 0
  HIDE 0 0 0 0 0 0 0 0 0 0
  MIRR 2 0
  DISZ  0.8
  GLAS  ___BLANK 1 0 1.603 38.0 0 0 0 0 0 0
  DIAM  4.19 1 0 0 1 ""
  POPS 0 0 0 0 0 0 0 0 1 1 1 1 0 0 0 0
SURF 9
  TYPE STANDARD
  CURV -0.0132756286010143 0 0 0 0
  HIDE 0 0 0 0 0 0 0 0 0 0
  MIRR 2 0
  DISZ  2.678
  DIAM  4.19 1 0 0 1 ""
  POPS 0 0 0 0 0 0 0 0 1 1 1 1 0 0 0 0
SURF 10
  STOP
  TYPE STANDARD
  CURV 0 0 0 0 0
  HIDE 0 0 0 0 0 0 0 0 0 0
  MIRR 2 0
  DISZ  1.5
  DIAM  3.3155 1 0 0 1 ""
  POPS 0 0 0 0 0 0 0 0 1 1 1 1 0 0 0 0
SURF 11
  TYPE STANDARD
  CURV 0.0620655412115194 0 0 0 0
  HIDE 0 0 0 0 0 0 0 0 0 0
  MIRR 2 0
  DISZ  0.8
  GLAS  ___BLANK 1 0 1.583 46.5 0 0 0 0 0 0
  DIAM  3.82 1 0 0 1 ""
  POPS 0 0 0 0 0 0 0 0 1 1 1 1 0 0 0 0
SURF 12
  TYPE STANDARD
  CURV 0.15281173594132 0 0 0 0
  HIDE 0 0 0 0 0 0 0 0 0 0
  MIRR 2 0
  DISZ  2.114
  GLAS  ___BLANK 1 0 1.498 82.6 0 0 0 0 0 0
  DIAM  3.82 1 0 0 1 ""
  POPS 0 0 0 0 0 0 0 0 1 1 1 1 0 0 0 0
SURF 13
  TYPE STANDARD
  CURV -0.0318714941356451 0 0 0 0
  HIDE 0 0 0 0 0 0 0 0 0 0
  MIRR 2 0
  DISZ  1.57
  DIAM  3.82 1 0 0 1 ""
  POPS 0 0 0 0 0 0 0 0 1 1 1 1 0 0 0 0
SURF 14
  TYPE EVENASPH
  CURV 0.025160397534281 0 0 0 0
  HIDE 0 0 0 0 0 0 0 0 0 0
  MIRR 2 0
  PARM 1 0
  PARM 2 8.336E-04
  PARM 3 -3.542E-05
  PARM 4 1.312E-07
  PARM 5 3.038E-08
  PARM 6 0
  PARM 7 0
  PARM 8 0
  DISZ  0.8
  CONI  0
  GLAS  ___BLANK 1 0 1.619 63.9 0 0 0 0 0 0
  DIAM  3.62 1 0 0 1 ""
  POPS 0 0 0 0 0 0 0 0 1 1 1 1 0 0 0 0
SURF 15
  TYPE EVENASPH
  CURV 0.0946969696969697 0 0 0 0
  HIDE 0 0 0 0 0 0 0 0 0 0
  MIRR 2 0
  PARM 1 0
  PARM 2 1.164E-03
  PARM 3 -4.103E-05
  PARM 4 8.025E-07
  PARM 5 -4.760E-09
  PARM 6 0
  PARM 7 0
  PARM 8 0
  DISZ  5.36
  CONI  0
  DIAM  3.2 1 0 0 1 ""
  POPS 0 0 0 0 0 0 0 0 1 1 1 1 0 0 0 0
SURF 16
  TYPE EVENASPH
  CURV -0.0434216239687364 0 0 0 0
  HIDE 0 0 0 0 0 0 0 0 0 0
  MIRR 2 0
  PARM 1 0
  PARM 2 1.801E-04
  PARM 3 1.181E-06
  PARM 4 -3.912E-08
  PARM 5 1.795E-11
  PARM 6 0
  PARM 7 0
  PARM 8 0
  DISZ  2.584
  CONI  0
  GLAS  ___BLANK 1 0 1.517 63.9 0 0 0 0 0 0
  DIAM  6.76 1 0 0 1 ""
  POPS 0 0 0 0 0 0 0 0 1 1 1 1 0 0 0 0
SURF 17
  TYPE EVENASPH
  CURV -0.0950751093363757 0 0 0 0
  HIDE 0 0 0 0 0 0 0 0 0 0
  MIRR 2 0
  PARM 1 0
  PARM 2 1.621E-04
  PARM 3 1.593E-06
  PARM 4 -2.352E-08
  PARM 5 -1.206E-10
  PARM 6 0
  PARM 7 0
  PARM 8 0
  DISZ  13.3
  CONI  0
  DIAM  6.76 1 0 0 1 ""
  POPS 0 0 0 0 0 0 0 0 1 1 1 1 0 0 0 0
SURF 18
  TYPE STANDARD
  CURV 0.0 0 0 0 0 ""
  HIDE 0 0 0 0 0 0 0 0 0 0
  MIRR 2 0
  DISZ 0
  DIAM 8.19 1 0 0 1 ""
  POPS 0 0 0 0 0 0 0 0 1 1 1 1 0 0 0 0
TOL TOFF   0   0              0              0   0 0 0 0
MNUM 6 1
THIC   0   1 1.00E+10 0 0 0 1 1 1 0 0
THIC   0   2 1.00E+10 0 0 0 1 1 1 0 0
THIC   0   3 1.00E+10 0 0 0 1 1 1 0 0
THIC   0   4 151.82 0 0 0 1 1 1 0 0
THIC   0   5 142.91 0 0 0 1 1 1 0 0
THIC   0   6 138.66 0 0 0 1 1 1 0 0
THIC   6   1 18.51 0 0 0 1 1 1 0 0
THIC   6   2 6.32 0 0 0 1 1 1 0 0
THIC   6   3 2.14 0 0 0 1 1 1 0 0
THIC   6   4 18.51 0 0 0 1 1 1 0 0
THIC   6   5 6.32 0 0 0 1 1 1 0 0
THIC   6   6 2.14 0 0 0 1 1 1 0 0
THIC   13   1 1.57 0 0 0 1 1 1 0 0
THIC   13   2 6.56 0 0 0 1 1 1 0 0
THIC   13   3 11.21 0 0 0 1 1 1 0 0
THIC   13   4 1.98 0 0 0 1 1 1 0 0
THIC   13   5 8.15 0 0 0 1 1 1 0 0
THIC   13   6 14.40 0 0 0 1 1 1 0 0
THIC   15   1 5.36 0 0 0 1 1 1 0 0
THIC   15   2 8.74 0 0 0 1 1 1 0 0
THIC   15   3 11.31 0 0 0 1 1 1 0 0
THIC   15   4 4.95 0 0 0 1 1 1 0 0
THIC   15   5 7.16 0 0 0 1 1 1 0 0
THIC   15   6 8.12 0 0 0 1 1 1 0 0
THIC   17   1 13.30 0 0 0 1 1 1 0 0
THIC   17   2 13.30 0 0 0 1 1 1 0 0
THIC   17   3 13.30 0 0 0 1 1 1 0 0
THIC   17   4 13.30 0 0 0 1 1 1 0 0
THIC   17   5 13.30 0 0 0 1 1 1 0 0
THIC   17   6 13.30 0 0 0 1 1 1 0 0
