VERS 161019 507 33785
MODE SEQ
NAME US 2014/0368925 Example 1 (Fujifilm Fujinon XC16-50mm F3.5-5.6 OIS II)
NOTE 0 Prepared and converted by Bill Claff.
PFIL 0 0 0
LANG 0
UNIT MM X W X CM MR CPMM
FLOA
ENVD 20 1 0
GFAC 0 0
RAIM 0 2 1 1 0 1 0 0 0
SDMA 0 1 0
FTYP 3 0 3 3 0 0 0
ROPD 2
HYPR 0
PICB 1
XFLN 0 0 0 0 0 0 0 0 0 0 0 0
YFLN 0 9.94 14.2 0 0 0 0 0 0 0 0 0 0
FWGN 1 1 1 1 1 1 1 1 1 1 1 1
VDXN 0 0 0 0 0 0 0 0 0 0 0 0
VDYN 0 0 0 0 0 0 0 0 0 0 0 0
VCXN 0 0 0 0 0 0 0 0 0 0 0 0
VCYN 0 0 0 0 0 0 0 0 0 0 0 0
VANN 0 0 0 0 0 0 0 0 0 0 0 0
WAVM 1 0.4861327 1
WAVM 2 0.5875618 1
WAVM 3 0.6562725 1
WAVM 4 0.550 1
WAVM 5 0.550 1
WAVM 6 0.550 1
WAVM 7 0.550 1
WAVM 8 0.550 1
WAVM 9 0.550 1
WAVM 10 0.550 1
WAVM 11 0.550 1
WAVM 12 0.550 1
WAVM 13 0.550 1
WAVM 14 0.550 1
WAVM 15 0.550 1
WAVM 16 0.550 1
WAVM 17 0.550 1
WAVM 18 0.550 1
WAVM 19 0.550 1
WAVM 20 0.550 1
WAVM 21 0.550 1
WAVM 22 0.550 1
WAVM 23 0.550 1
WAVM 24 0.550 1
PWAV 2
POLS 1 0 1 0 0 1 0
GSTD 0 100 100 100 100 100 100 0 1 1 0 0 1 1 1 1 1 1
NSCD 100 500 0 1.0E-3 5 1.0E-6 0 0 0 0 0 0 1000000 0 2
SURF 0
  TYPE STANDARD
  CURV 0.0 0 0 0 0 ""
  HIDE 0 0 0 0 0 0 0 0 0 0
  MIRR 2 0
  DISZ INFINITY
  DIAM 0 1 0 0 1 ""
  POPS 0 0 0 0 0 0 0 0 1 1 1 1 0 0 0 0
SURF 1
  TYPE STANDARD
  CURV 0.0195018448745251 0 0 0 0
  HIDE 0 0 0 0 0 0 0 0 0 0
  MIRR 2 0
  DISZ  1.37
  GLAS  ___BLANK 1 0 1.92286 18.90 0 0 0 0 0 0
  DIAM  20.21 1 0 0 1 ""
  POPS 0 0 0 0 0 0 0 0 1 1 1 1 0 0 0 0
SURF 2
  TYPE STANDARD
  CURV 0.0285951216722427 0 0 0 0
  HIDE 0 0 0 0 0 0 0 0 0 0
  MIRR 2 0
  DISZ  5.2
  GLAS  ___BLANK 1 0 1.83481 42.73 0 0 0 0 0 0
  DIAM  17.84 1 0 0 1 ""
  POPS 0 0 0 0 0 0 0 0 1 1 1 1 0 0 0 0
SURF 3
  TYPE STANDARD
  CURV 0.00584896566891111 0 0 0 0
  HIDE 0 0 0 0 0 0 0 0 0 0
  MIRR 2 0
  DISZ  0.7
  DIAM  16.77 1 0 0 1 ""
  POPS 0 0 0 0 0 0 0 0 1 1 1 1 0 0 0 0
SURF 4
  TYPE STANDARD
  CURV 0.0221949470983436 0 0 0 0
  HIDE 0 0 0 0 0 0 0 0 0 0
  MIRR 2 0
  DISZ  1
  GLAS  ___BLANK 1 0 1.88300 40.76 0 0 0 0 0 0
  DIAM  13.525 1 0 0 1 ""
  POPS 0 0 0 0 0 0 0 0 1 1 1 1 0 0 0 0
SURF 5
  TYPE STANDARD
  CURV 0.0963725376816622 0 0 0 0
  HIDE 0 0 0 0 0 0 0 0 0 0
  MIRR 2 0
  DISZ  6.2
  DIAM  8.93 1 0 0 1 ""
  POPS 0 0 0 0 0 0 0 0 1 1 1 1 0 0 0 0
SURF 6
  TYPE XOSPHERE
  CURV -0.0134673242312178 0 0 0 0
  HIDE 0 0 0 0 0 0 0 0 0 0
  MIRR 2 0
  XDAT 1 20 0 0 1 0 0 ""
  XDAT 2 1 0 0 1 0 0 ""
  XDAT 3 0 0 0 1 0 0 ""
  XDAT 4 0 0 0 1 0 0 ""
  XDAT 5 4.0933323E-04 0 0 1 0 0 ""
  XDAT 6 -6.0888867E-04 0 0 1 0 0 ""
  XDAT 7 1.4419977E-04 0 0 1 0 0 ""
  XDAT 8 -1.4619676E-05 0 0 1 0 0 ""
  XDAT 9 8.0416169E-08 0 0 1 0 0 ""
  XDAT 10 6.1299999E-08 0 0 1 0 0 ""
  XDAT 11 3.1292229E-09 0 0 1 0 0 ""
  XDAT 12 -1.7635605E-10 0 0 1 0 0 ""
  XDAT 13 -4.1002904E-11 0 0 1 0 0 ""
  XDAT 14 -3.4140583E-12 0 0 1 0 0 ""
  XDAT 15 -6.6094040E-14 0 0 1 0 0 ""
  XDAT 16 2.4538915E-14 0 0 1 0 0 ""
  XDAT 17 3.2551846E-15 0 0 1 0 0 ""
  XDAT 18 3.5301237E-16 0 0 1 0 0 ""
  XDAT 19 -2.5050314E-17 0 0 1 0 0 ""
  XDAT 20 3.1545594E-19 0 0 1 0 0 ""
  XDAT 21 -1.0455552E-19 0 0 1 0 0 ""
  XDAT 22 -1.2392007E-20 0 0 1 0 0 ""
  DISZ  1.05
  CONI  0
  GLAS  ___BLANK 1 0 1.58254 59.47 0 0 0 0 0 0
  DIAM  8.93 1 0 0 1 ""
  POPS 0 0 0 0 0 0 0 0 1 1 1 1 0 0 0 0
SURF 7
  TYPE XOSPHERE
  CURV 0.0410586563965281 0 0 0 0
  HIDE 0 0 0 0 0 0 0 0 0 0
  MIRR 2 0
  XDAT 1 20 0 0 1 0 0 ""
  XDAT 2 1 0 0 1 0 0 ""
  XDAT 3 0 0 0 1 0 0 ""
  XDAT 4 0 0 0 1 0 0 ""
  XDAT 5 -1.2811739E-04 0 0 1 0 0 ""
  XDAT 6 -2.6404611E-04 0 0 1 0 0 ""
  XDAT 7 4.0381724E-05 0 0 1 0 0 ""
  XDAT 8 5.5734993E-07 0 0 1 0 0 ""
  XDAT 9 -6.1603008E-07 0 0 1 0 0 ""
  XDAT 10 -1.5625782E-09 0 0 1 0 0 ""
  XDAT 11 6.4187304E-09 0 0 1 0 0 ""
  XDAT 12 5.3217493E-10 0 0 1 0 0 ""
  XDAT 13 -1.9789871E-11 0 0 1 0 0 ""
  XDAT 14 -9.6388463E-12 0 0 1 0 0 ""
  XDAT 15 -1.0319722E-12 0 0 1 0 0 ""
  XDAT 16 -1.3216914E-14 0 0 1 0 0 ""
  XDAT 17 1.0643318E-14 0 0 1 0 0 ""
  XDAT 18 1.7477013E-15 0 0 1 0 0 ""
  XDAT 19 1.1109141E-16 0 0 1 0 0 ""
  XDAT 20 -1.3183865E-17 0 0 1 0 0 ""
  XDAT 21 -2.3211123E-18 0 0 1 0 0 ""
  XDAT 22 1.1419089E-19 0 0 1 0 0 ""
  DISZ  0.1
  CONI  0
  DIAM  8.25 1 0 0 1 ""
  POPS 0 0 0 0 0 0 0 0 1 1 1 1 0 0 0 0
SURF 8
  TYPE STANDARD
  CURV 0.0541776376382884 0 0 0 0
  HIDE 0 0 0 0 0 0 0 0 0 0
  MIRR 2 0
  DISZ  2.5
  GLAS  ___BLANK 1 0 1.94595 17.98 0 0 0 0 0 0
  DIAM  9.18 1 0 0 1 ""
  POPS 0 0 0 0 0 0 0 0 1 1 1 1 0 0 0 0
SURF 9
  TYPE STANDARD
  CURV 0.0238202429188373 0 0 0 0
  HIDE 0 0 0 0 0 0 0 0 0 0
  MIRR 2 0
  DISZ  14.58
  DIAM  8.55 1 0 0 1 ""
  POPS 0 0 0 0 0 0 0 0 1 1 1 1 0 0 0 0
SURF 10
  STOP
  TYPE STANDARD
  CURV 0 0 0 0 0
  HIDE 0 0 0 0 0 0 0 0 0 0
  MIRR 2 0
  DISZ  1.3
  DIAM  4.7755 1 0 0 1 ""
  POPS 0 0 0 0 0 0 0 0 1 1 1 1 0 0 0 0
SURF 11
  TYPE XOSPHERE
  CURV 0.0474813516991202 0 0 0 0
  HIDE 0 0 0 0 0 0 0 0 0 0
  MIRR 2 0
  XDAT 1 20 0 0 1 0 0 ""
  XDAT 2 1 0 0 1 0 0 ""
  XDAT 3 0 0 0 1 0 0 ""
  XDAT 4 0 0 0 1 0 0 ""
  XDAT 5 8.4079418E-05 0 0 1 0 0 ""
  XDAT 6 -1.5884117E-04 0 0 1 0 0 ""
  XDAT 7 5.0163675E-05 0 0 1 0 0 ""
  XDAT 8 -8.3478199E-06 0 0 1 0 0 ""
  XDAT 9 -2.0759316E-06 0 0 1 0 0 ""
  XDAT 10 8.7628996E-07 0 0 1 0 0 ""
  XDAT 11 -1.0381980E-07 0 0 1 0 0 ""
  XDAT 12 3.9240483E-09 0 0 1 0 0 ""
  XDAT 13 -6.6439218E-10 0 0 1 0 0 ""
  XDAT 14 5.2203771E-11 0 0 1 0 0 ""
  XDAT 15 3.0635548E-11 0 0 1 0 0 ""
  XDAT 16 1.2779807E-12 0 0 1 0 0 ""
  XDAT 17 -9.2825959E-13 0 0 1 0 0 ""
  XDAT 18 -1.4403526E-13 0 0 1 0 0 ""
  XDAT 19 -1.4596389E-14 0 0 1 0 0 ""
  XDAT 20 4.0192223E-15 0 0 1 0 0 ""
  XDAT 21 1.7353656E-15 0 0 1 0 0 ""
  XDAT 22 -2.0085297E-16 0 0 1 0 0 ""
  DISZ  3.3
  CONI  0
  GLAS  ___BLANK 1 0 1.80348 40.44 0 0 0 0 0 0
  DIAM  6.005 1 0 0 1 ""
  POPS 0 0 0 0 0 0 0 0 1 1 1 1 0 0 0 0
SURF 12
  TYPE XOSPHERE
  CURV -0.0123423115421595 0 0 0 0
  HIDE 0 0 0 0 0 0 0 0 0 0
  MIRR 2 0
  XDAT 1 20 0 0 1 0 0 ""
  XDAT 2 1 0 0 1 0 0 ""
  XDAT 3 0 0 0 1 0 0 ""
  XDAT 4 0 0 0 1 0 0 ""
  XDAT 5 4.9336044E-05 0 0 1 0 0 ""
  XDAT 6 1.6565053E-05 0 0 1 0 0 ""
  XDAT 7 -4.7377075E-05 0 0 1 0 0 ""
  XDAT 8 2.7376819E-05 0 0 1 0 0 ""
  XDAT 9 -6.0241034E-06 0 0 1 0 0 ""
  XDAT 10 2.5511112E-07 0 0 1 0 0 ""
  XDAT 11 -7.2866935E-09 0 0 1 0 0 ""
  XDAT 12 2.0274318E-08 0 0 1 0 0 ""
  XDAT 13 -1.7781414E-10 0 0 1 0 0 ""
  XDAT 14 -5.0079019E-10 0 0 1 0 0 ""
  XDAT 15 -7.4718603E-11 0 0 1 0 0 ""
  XDAT 16 7.0374446E-12 0 0 1 0 0 ""
  XDAT 17 5.8406459E-12 0 0 1 0 0 ""
  XDAT 18 -8.2374230E-13 0 0 1 0 0 ""
  XDAT 19 -2.0827410E-14 0 0 1 0 0 ""
  XDAT 20 2.2352161E-15 0 0 1 0 0 ""
  XDAT 21 1.2506994E-15 0 0 1 0 0 ""
  XDAT 22 -8.5927388E-17 0 0 1 0 0 ""
  DISZ  1.56
  CONI  0
  DIAM  6.005 1 0 0 1 ""
  POPS 0 0 0 0 0 0 0 0 1 1 1 1 0 0 0 0
SURF 13
  TYPE STANDARD
  CURV 0 0 0 0 0
  HIDE 0 0 0 0 0 0 0 0 0 0
  MIRR 2 0
  DISZ  0.71
  GLAS  ___BLANK 1 0 1.80000 29.84 0 0 0 0 0 0
  DIAM  7.03 1 0 0 1 ""
  POPS 0 0 0 0 0 0 0 0 1 1 1 1 0 0 0 0
SURF 14
  TYPE STANDARD
  CURV 0.076254384627116 0 0 0 0
  HIDE 0 0 0 0 0 0 0 0 0 0
  MIRR 2 0
  DISZ  4.5
  GLAS  ___BLANK 1 0 1.49700 81.54 0 0 0 0 0 0
  DIAM  6.105 1 0 0 1 ""
  POPS 0 0 0 0 0 0 0 0 1 1 1 1 0 0 0 0
SURF 15
  TYPE STANDARD
  CURV -0.076254384627116 0 0 0 0
  HIDE 0 0 0 0 0 0 0 0 0 0
  MIRR 2 0
  DISZ  2.32
  DIAM  6.105 1 0 0 1 ""
  POPS 0 0 0 0 0 0 0 0 1 1 1 1 0 0 0 0
SURF 16
  TYPE XOSPHERE
  CURV -0.020048557606523 0 0 0 0
  HIDE 0 0 0 0 0 0 0 0 0 0
  MIRR 2 0
  XDAT 1 20 0 0 1 0 0 ""
  XDAT 2 1 0 0 1 0 0 ""
  XDAT 3 0 0 0 1 0 0 ""
  XDAT 4 0 0 0 1 0 0 ""
  XDAT 5 -2.2718447E-04 0 0 1 0 0 ""
  XDAT 6 2.5114346E-04 0 0 1 0 0 ""
  XDAT 7 -4.9965869E-05 0 0 1 0 0 ""
  XDAT 8 1.9673561E-06 0 0 1 0 0 ""
  XDAT 9 8.9571158E-07 0 0 1 0 0 ""
  XDAT 10 8.1475858E-08 0 0 1 0 0 ""
  XDAT 11 -8.8732257E-09 0 0 1 0 0 ""
  XDAT 12 -4.0745601E-09 0 0 1 0 0 ""
  XDAT 13 -6.4029472E-10 0 0 1 0 0 ""
  XDAT 14 -3.1160921E-11 0 0 1 0 0 ""
  XDAT 15 1.2425429E-11 0 0 1 0 0 ""
  XDAT 16 4.5091154E-12 0 0 1 0 0 ""
  XDAT 17 7.7613196E-13 0 0 1 0 0 ""
  XDAT 18 5.1227760E-14 0 0 1 0 0 ""
  XDAT 19 -1.5128955E-14 0 0 1 0 0 ""
  XDAT 20 -6.5219152E-15 0 0 1 0 0 ""
  XDAT 21 -9.7400580E-16 0 0 1 0 0 ""
  XDAT 22 2.4600407E-16 0 0 1 0 0 ""
  DISZ  1
  CONI  0
  GLAS  ___BLANK 1 0 1.58517 59.41 0 0 0 0 0 0
  DIAM  4.96 1 0 0 1 ""
  POPS 0 0 0 0 0 0 0 0 1 1 1 1 0 0 0 0
SURF 17
  TYPE XOSPHERE
  CURV 0.0263140582856391 0 0 0 0
  HIDE 0 0 0 0 0 0 0 0 0 0
  MIRR 2 0
  XDAT 1 20 0 0 1 0 0 ""
  XDAT 2 1 0 0 1 0 0 ""
  XDAT 3 0 0 0 1 0 0 ""
  XDAT 4 0 0 0 1 0 0 ""
  XDAT 5 6.8549524E-05 0 0 1 0 0 ""
  XDAT 6 8.8501534E-05 0 0 1 0 0 ""
  XDAT 7 -6.2564615E-06 0 0 1 0 0 ""
  XDAT 8 5.6102257E-07 0 0 1 0 0 ""
  XDAT 9 -1.6412544E-07 0 0 1 0 0 ""
  XDAT 10 7.8367930E-09 0 0 1 0 0 ""
  XDAT 11 8.2051813E-09 0 0 1 0 0 ""
  XDAT 12 1.6270042E-09 0 0 1 0 0 ""
  XDAT 13 1.0734148E-10 0 0 1 0 0 ""
  XDAT 14 -3.2465246E-11 0 0 1 0 0 ""
  XDAT 15 -1.3240197E-11 0 0 1 0 0 ""
  XDAT 16 -2.7277581E-12 0 0 1 0 0 ""
  XDAT 17 -2.9460504E-13 0 0 1 0 0 ""
  XDAT 18 1.8727986E-14 0 0 1 0 0 ""
  XDAT 19 1.9093148E-14 0 0 1 0 0 ""
  XDAT 20 4.9610731E-15 0 0 1 0 0 ""
  XDAT 21 4.8546866E-16 0 0 1 0 0 ""
  XDAT 22 -2.1226761E-16 0 0 1 0 0 ""
  DISZ  5.2
  CONI  0
  DIAM  5.535 1 0 0 1 ""
  POPS 0 0 0 0 0 0 0 0 1 1 1 1 0 0 0 0
SURF 18
  TYPE STANDARD
  CURV 0.0204346448969583 0 0 0 0
  HIDE 0 0 0 0 0 0 0 0 0 0
  MIRR 2 0
  DISZ  3.1
  GLAS  ___BLANK 1 0 1.61800 63.33 0 0 0 0 0 0
  DIAM  8.64 1 0 0 1 ""
  POPS 0 0 0 0 0 0 0 0 1 1 1 1 0 0 0 0
SURF 19
  TYPE STANDARD
  CURV -0.0375917238060869 0 0 0 0
  HIDE 0 0 0 0 0 0 0 0 0 0
  MIRR 2 0
  DISZ  3.6
  DIAM  8.64 1 0 0 1 ""
  POPS 0 0 0 0 0 0 0 0 1 1 1 1 0 0 0 0
SURF 20
  TYPE STANDARD
  CURV -0.0552001280642971 0 0 0 0
  HIDE 0 0 0 0 0 0 0 0 0 0
  MIRR 2 0
  DISZ  0.8
  GLAS  ___BLANK 1 0 1.54072 47.23 0 0 0 0 0 0
  DIAM  8.055 1 0 0 1 ""
  POPS 0 0 0 0 0 0 0 0 1 1 1 1 0 0 0 0
SURF 21
  TYPE STANDARD
  CURV 0 0 0 0 0
  HIDE 0 0 0 0 0 0 0 0 0 0
  MIRR 2 0
  DISZ  2.2
  DIAM  10.285 1 0 0 1 ""
  POPS 0 0 0 0 0 0 0 0 1 1 1 1 0 0 0 0
SURF 22
  TYPE STANDARD
  CURV 0 0 0 0 0
  HIDE 0 0 0 0 0 0 0 0 0 0
  MIRR 2 0
  DISZ  2.8
  GLAS  ___BLANK 1 0 1.71299 53.87 0 0 0 0 0 0
  DIAM  14.085 1 0 0 1 ""
  POPS 0 0 0 0 0 0 0 0 1 1 1 1 0 0 0 0
SURF 23
  TYPE STANDARD
  CURV -0.0153766668306844 0 0 0 0
  HIDE 0 0 0 0 0 0 0 0 0 0
  MIRR 2 0
  DISZ  11.95
  DIAM  14.085 1 0 0 1 ""
  POPS 0 0 0 0 0 0 0 0 1 1 1 1 0 0 0 0
SURF 24
  TYPE STANDARD
  CURV 0 0 0 0 0
  HIDE 0 0 0 0 0 0 0 0 0 0
  MIRR 2 0
  DISZ  2.85
  GLAS  ___BLANK 1 0 1.51680 64.20 0 0 0 0 0 0
  DIAM  14.38 1 0 0 1 ""
  POPS 0 0 0 0 0 0 0 0 1 1 1 1 0 0 0 0
SURF 25
  TYPE STANDARD
  CURV 0 0 0 0 0
  HIDE 0 0 0 0 0 0 0 0 0 0
  MIRR 2 0
  DISZ  2.42
  DIAM  14.38 1 0 0 1 ""
  POPS 0 0 0 0 0 0 0 0 1 1 1 1 0 0 0 0
SURF 26
  TYPE STANDARD
  CURV 0.0 0 0 0 0 ""
  HIDE 0 0 0 0 0 0 0 0 0 0
  MIRR 2 0
  DISZ 0
  DIAM 14.2 1 0 0 1 ""
  POPS 0 0 0 0 0 0 0 0 1 1 1 1 0 0 0 0
TOL TOFF   0   0              0              0   0 0 0 0
MNUM 3 1
SDIA   10   1 4.7755 0 0 0 1 1 1 0 0
SDIA   10   2 4.771 0 0 0 1 1 1 0 0
SDIA   10   3 4.737 0 0 0 1 1 1 0 0
THIC   3   1 0.70 0 0 0 1 1 1 0 0
THIC   3   2 8.67 0 0 0 1 1 1 0 0
THIC   3   3 22.21 0 0 0 1 1 1 0 0
THIC   9   1 14.58 0 0 0 1 1 1 0 0
THIC   9   2 7.72 0 0 0 1 1 1 0 0
THIC   9   3 3.40 0 0 0 1 1 1 0 0
THIC   21   1 2.20 0 0 0 1 1 1 0 0
THIC   21   2 13.24 0 0 0 1 1 1 0 0
THIC   21   3 25.01 0 0 0 1 1 1 0 0
