VERS 161019 507 33785
MODE SEQ
NAME JP 2021-015312 Example 3 (Fujifilm Fujinon XC15-45mm F3.5-5.6 OIS PZ)
NOTE 0 Prepared and converted by Bill Claff.
PFIL 0 0 0
LANG 0
UNIT MM X W X CM MR CPMM
FLOA
ENVD 20 1 0
GFAC 0 0
RAIM 0 2 1 1 0 1 0 0 0
SDMA 0 1 0
FTYP 3 0 3 3 0 0 0
ROPD 2
HYPR 0
PICB 1
XFLN 0 0 0 0 0 0 0 0 0 0 0 0
YFLN 0 9.8 14 0 0 0 0 0 0 0 0 0 0
FWGN 1 1 1 1 1 1 1 1 1 1 1 1
VDXN 0 0 0 0 0 0 0 0 0 0 0 0
VDYN 0 0 0 0 0 0 0 0 0 0 0 0
VCXN 0 0 0 0 0 0 0 0 0 0 0 0
VCYN 0 0 0 0 0 0 0 0 0 0 0 0
VANN 0 0 0 0 0 0 0 0 0 0 0 0
WAVM 1 0.4861327 1
WAVM 2 0.5875618 1
WAVM 3 0.6562725 1
WAVM 4 0.550 1
WAVM 5 0.550 1
WAVM 6 0.550 1
WAVM 7 0.550 1
WAVM 8 0.550 1
WAVM 9 0.550 1
WAVM 10 0.550 1
WAVM 11 0.550 1
WAVM 12 0.550 1
WAVM 13 0.550 1
WAVM 14 0.550 1
WAVM 15 0.550 1
WAVM 16 0.550 1
WAVM 17 0.550 1
WAVM 18 0.550 1
WAVM 19 0.550 1
WAVM 20 0.550 1
WAVM 21 0.550 1
WAVM 22 0.550 1
WAVM 23 0.550 1
WAVM 24 0.550 1
PWAV 2
POLS 1 0 1 0 0 1 0
GSTD 0 100 100 100 100 100 100 0 1 1 0 0 1 1 1 1 1 1
NSCD 100 500 0 1.0E-3 5 1.0E-6 0 0 0 0 0 0 1000000 0 2
SURF 0
  TYPE STANDARD
  CURV 0.0 0 0 0 0 ""
  HIDE 0 0 0 0 0 0 0 0 0 0
  MIRR 2 0
  DISZ INFINITY
  DIAM 0 1 0 0 1 ""
  POPS 0 0 0 0 0 0 0 0 1 1 1 1 0 0 0 0
SURF 1
  TYPE STANDARD
  CURV 0.0300345397206788 0 0 0 0
  HIDE 0 0 0 0 0 0 0 0 0 0
  MIRR 2 0
  DISZ  1.5
  GLAS  ___BLANK 1 0 1.95375 32.32 0 0 0 0 0 0
  DIAM  14.86 1 0 0 1 ""
  POPS 0 0 0 0 0 0 0 0 1 1 1 1 0 0 0 0
SURF 2
  TYPE STANDARD
  CURV 0.0797130330809087 0 0 0 0
  HIDE 0 0 0 0 0 0 0 0 0 0
  MIRR 2 0
  DISZ  6.8
  DIAM  10.815 1 0 0 1 ""
  POPS 0 0 0 0 0 0 0 0 1 1 1 1 0 0 0 0
SURF 3
  TYPE XOSPHERE
  CURV -0.0059998440040559 0 0 0 0
  HIDE 0 0 0 0 0 0 0 0 0 0
  MIRR 2 0
  XDAT 1 20 0 0 1 0 0 ""
  XDAT 2 1 0 0 1 0 0 ""
  XDAT 3 0 0 0 1 0 0 ""
  XDAT 4 0 0 0 1 0 0 ""
  XDAT 5 0 0 0 1 0 0 ""
  XDAT 6 -1.9140163E-05 0 0 1 0 0 ""
  XDAT 7 -2.0582766E-05 0 0 1 0 0 ""
  XDAT 8 8.7532733E-06 0 0 1 0 0 ""
  XDAT 9 -1.2534038E-06 0 0 1 0 0 ""
  XDAT 10 4.0773420E-08 0 0 1 0 0 ""
  XDAT 11 4.0704728E-09 0 0 1 0 0 ""
  XDAT 12 -9.4877383E-13 0 0 1 0 0 ""
  XDAT 13 -1.3786661E-11 0 0 1 0 0 ""
  XDAT 14 -2.3438579E-12 0 0 1 0 0 ""
  XDAT 15 7.0378998E-14 0 0 1 0 0 ""
  XDAT 16 4.7956714E-15 0 0 1 0 0 ""
  XDAT 17 6.5570093E-16 0 0 1 0 0 ""
  XDAT 18 -6.1312681E-17 0 0 1 0 0 ""
  XDAT 19 -3.1119018E-19 0 0 1 0 0 ""
  XDAT 20 4.4360739E-19 0 0 1 0 0 ""
  XDAT 21 8.8956009E-21 0 0 1 0 0 ""
  XDAT 22 -2.7150711E-21 0 0 1 0 0 ""
  DISZ  1.25
  CONI  0
  GLAS  ___BLANK 1 0 1.53409 55.89 0 0 0 0 0 0
  DIAM  10.815 1 0 0 1 ""
  POPS 0 0 0 0 0 0 0 0 1 1 1 1 0 0 0 0
SURF 4
  TYPE XOSPHERE
  CURV 0.0264075208619415 0 0 0 0
  HIDE 0 0 0 0 0 0 0 0 0 0
  MIRR 2 0
  XDAT 1 20 0 0 1 0 0 ""
  XDAT 2 1 0 0 1 0 0 ""
  XDAT 3 0 0 0 1 0 0 ""
  XDAT 4 0 0 0 1 0 0 ""
  XDAT 5 0 0 0 1 0 0 ""
  XDAT 6 -8.9669372E-05 0 0 1 0 0 ""
  XDAT 7 1.2120440E-05 0 0 1 0 0 ""
  XDAT 8 -1.2563822E-07 0 0 1 0 0 ""
  XDAT 9 -6.0303929E-08 0 0 1 0 0 ""
  XDAT 10 -2.5960056E-08 0 0 1 0 0 ""
  XDAT 11 2.0308435E-09 0 0 1 0 0 ""
  XDAT 12 3.0865462E-10 0 0 1 0 0 ""
  XDAT 13 2.5785525E-12 0 0 1 0 0 ""
  XDAT 14 -2.7120098E-12 0 0 1 0 0 ""
  XDAT 15 -2.3213883E-13 0 0 1 0 0 ""
  XDAT 16 5.5221688E-16 0 0 1 0 0 ""
  XDAT 17 1.5262265E-15 0 0 1 0 0 ""
  XDAT 18 1.3658555E-16 0 0 1 0 0 ""
  XDAT 19 6.8029137E-18 0 0 1 0 0 ""
  XDAT 20 -7.0655118E-19 0 0 1 0 0 ""
  XDAT 21 -1.5783086E-19 0 0 1 0 0 ""
  XDAT 22 8.6449700E-21 0 0 1 0 0 ""
  DISZ  0.62
  CONI  0
  DIAM  10.94 1 0 0 1 ""
  POPS 0 0 0 0 0 0 0 0 1 1 1 1 0 0 0 0
SURF 5
  TYPE STANDARD
  CURV 0.03527585720333 0 0 0 0
  HIDE 0 0 0 0 0 0 0 0 0 0
  MIRR 2 0
  DISZ  2.42
  GLAS  ___BLANK 1 0 1.94595 17.98 0 0 0 0 0 0
  DIAM  11.36 1 0 0 1 ""
  POPS 0 0 0 0 0 0 0 0 1 1 1 1 0 0 0 0
SURF 6
  TYPE STANDARD
  CURV 0.0129052240346892 0 0 0 0
  HIDE 0 0 0 0 0 0 0 0 0 0
  MIRR 2 0
  DISZ  24.57
  DIAM  11.36 1 0 0 1 ""
  POPS 0 0 0 0 0 0 0 0 1 1 1 1 0 0 0 0
SURF 7
  TYPE STANDARD
  CURV 0.0711743772241993 0 0 0 0
  HIDE 0 0 0 0 0 0 0 0 0 0
  MIRR 2 0
  DISZ  3.25
  GLAS  ___BLANK 1 0 1.62041 60.29 0 0 0 0 0 0
  DIAM  7.22 1 0 0 1 ""
  POPS 0 0 0 0 0 0 0 0 1 1 1 1 0 0 0 0
SURF 8
  TYPE STANDARD
  CURV 0.0045418829738433 0 0 0 0
  HIDE 0 0 0 0 0 0 0 0 0 0
  MIRR 2 0
  DISZ  2
  DIAM  7.22 1 0 0 1 ""
  POPS 0 0 0 0 0 0 0 0 1 1 1 1 0 0 0 0
SURF 9
  STOP
  TYPE STANDARD
  CURV 0 0 0 0 0
  HIDE 0 0 0 0 0 0 0 0 0 0
  MIRR 2 0
  DISZ  1.41
  DIAM  4.689 1 0 0 1 ""
  POPS 0 0 0 0 0 0 0 0 1 1 1 1 0 0 0 0
SURF 10
  TYPE STANDARD
  CURV 0.0607754953202869 0 0 0 0
  HIDE 0 0 0 0 0 0 0 0 0 0
  MIRR 2 0
  DISZ  3.51
  GLAS  ___BLANK 1 0 1.53775 74.70 0 0 0 0 0 0
  DIAM  6.03 1 0 0 1 ""
  POPS 0 0 0 0 0 0 0 0 1 1 1 1 0 0 0 0
SURF 11
  TYPE STANDARD
  CURV -0.0607754953202869 0 0 0 0
  HIDE 0 0 0 0 0 0 0 0 0 0
  MIRR 2 0
  DISZ  0.88
  GLAS  ___BLANK 1 0 1.62588 35.70 0 0 0 0 0 0
  DIAM  6.03 1 0 0 1 ""
  POPS 0 0 0 0 0 0 0 0 1 1 1 1 0 0 0 0
SURF 12
  TYPE STANDARD
  CURV 0.0871156024043906 0 0 0 0
  HIDE 0 0 0 0 0 0 0 0 0 0
  MIRR 2 0
  DISZ  0.29
  DIAM  5.195 1 0 0 1 ""
  POPS 0 0 0 0 0 0 0 0 1 1 1 1 0 0 0 0
SURF 13
  TYPE XOSPHERE
  CURV 0.115553501271089 0 0 0 0
  HIDE 0 0 0 0 0 0 0 0 0 0
  MIRR 2 0
  XDAT 1 20 0 0 1 0 0 ""
  XDAT 2 1 0 0 1 0 0 ""
  XDAT 3 0 0 0 1 0 0 ""
  XDAT 4 0 0 0 1 0 0 ""
  XDAT 5 0 0 0 1 0 0 ""
  XDAT 6 -5.7885505E-05 0 0 1 0 0 ""
  XDAT 7 -4.5028218E-05 0 0 1 0 0 ""
  XDAT 8 3.0080467E-05 0 0 1 0 0 ""
  XDAT 9 -5.6206804E-06 0 0 1 0 0 ""
  XDAT 10 -3.4363745E-06 0 0 1 0 0 ""
  XDAT 11 6.7064995E-07 0 0 1 0 0 ""
  XDAT 12 1.2992400E-07 0 0 1 0 0 ""
  XDAT 13 5.4385873E-09 0 0 1 0 0 ""
  XDAT 14 -8.1095113E-09 0 0 1 0 0 ""
  XDAT 15 -1.0069337E-09 0 0 1 0 0 ""
  XDAT 16 -1.5186113E-10 0 0 1 0 0 ""
  XDAT 17 2.7601121E-11 0 0 1 0 0 ""
  XDAT 18 1.8124262E-11 0 0 1 0 0 ""
  XDAT 19 6.8738032E-12 0 0 1 0 0 ""
  XDAT 20 -1.1634526E-12 0 0 1 0 0 ""
  XDAT 21 -3.5841100E-13 0 0 1 0 0 ""
  XDAT 22 5.1481080E-14 0 0 1 0 0 ""
  DISZ  0.85
  CONI  0
  GLAS  ___BLANK 1 0 1.58313 59.38 0 0 0 0 0 0
  DIAM  4.295 1 0 0 1 ""
  POPS 0 0 0 0 0 0 0 0 1 1 1 1 0 0 0 0
SURF 14
  TYPE XOSPHERE
  CURV 0.103359173126615 0 0 0 0
  HIDE 0 0 0 0 0 0 0 0 0 0
  MIRR 2 0
  XDAT 1 20 0 0 1 0 0 ""
  XDAT 2 1 0 0 1 0 0 ""
  XDAT 3 0 0 0 1 0 0 ""
  XDAT 4 0 0 0 1 0 0 ""
  XDAT 5 0 0 0 1 0 0 ""
  XDAT 6 2.4485462E-04 0 0 1 0 0 ""
  XDAT 7 -1.4111064E-04 0 0 1 0 0 ""
  XDAT 8 5.6570853E-05 0 0 1 0 0 ""
  XDAT 9 -1.2286182E-05 0 0 1 0 0 ""
  XDAT 10 3.1442298E-07 0 0 1 0 0 ""
  XDAT 11 4.9931822E-08 0 0 1 0 0 ""
  XDAT 12 -2.6354143E-08 0 0 1 0 0 ""
  XDAT 13 -4.8123943E-09 0 0 1 0 0 ""
  XDAT 14 4.7006529E-09 0 0 1 0 0 ""
  XDAT 15 7.8000672E-10 0 0 1 0 0 ""
  XDAT 16 2.4725126E-10 0 0 1 0 0 ""
  XDAT 17 -1.1394066E-10 0 0 1 0 0 ""
  XDAT 18 -3.3900876E-11 0 0 1 0 0 ""
  XDAT 19 -3.6498853E-12 0 0 1 0 0 ""
  XDAT 20 2.0945668E-12 0 0 1 0 0 ""
  XDAT 21 7.3243178E-13 0 0 1 0 0 ""
  XDAT 22 -1.4616295E-13 0 0 1 0 0 ""
  DISZ  2
  CONI  0
  DIAM  4.295 1 0 0 1 ""
  POPS 0 0 0 0 0 0 0 0 1 1 1 1 0 0 0 0
SURF 15
  TYPE STANDARD
  CURV 0.0389635690629262 0 0 0 0
  HIDE 0 0 0 0 0 0 0 0 0 0
  MIRR 2 0
  DISZ  2.14
  GLAS  ___BLANK 1 0 1.49700 81.61 0 0 0 0 0 0
  DIAM  6.28 1 0 0 1 ""
  POPS 0 0 0 0 0 0 0 0 1 1 1 1 0 0 0 0
SURF 16
  TYPE STANDARD
  CURV -0.0182099608485842 0 0 0 0
  HIDE 0 0 0 0 0 0 0 0 0 0
  MIRR 2 0
  DISZ  2.38
  DIAM  6.28 1 0 0 1 ""
  POPS 0 0 0 0 0 0 0 0 1 1 1 1 0 0 0 0
SURF 17
  TYPE XOSPHERE
  CURV -0.0427423491195076 0 0 0 0
  HIDE 0 0 0 0 0 0 0 0 0 0
  MIRR 2 0
  XDAT 1 20 0 0 1 0 0 ""
  XDAT 2 1 0 0 1 0 0 ""
  XDAT 3 0 0 0 1 0 0 ""
  XDAT 4 0 0 0 1 0 0 ""
  XDAT 5 0 0 0 1 0 0 ""
  XDAT 6 8.7676592E-04 0 0 1 0 0 ""
  XDAT 7 -1.2912489E-04 0 0 1 0 0 ""
  XDAT 8 -1.1057738E-05 0 0 1 0 0 ""
  XDAT 9 3.5517914E-06 0 0 1 0 0 ""
  XDAT 10 3.9148966E-07 0 0 1 0 0 ""
  XDAT 11 -5.1672445E-08 0 0 1 0 0 ""
  XDAT 12 -2.3030362E-08 0 0 1 0 0 ""
  XDAT 13 8.0622832E-10 0 0 1 0 0 ""
  XDAT 14 4.6251920E-10 0 0 1 0 0 ""
  XDAT 15 -1.0569499E-11 0 0 1 0 0 ""
  XDAT 16 4.2888450E-12 0 0 1 0 0 ""
  XDAT 17 -1.9088366E-12 0 0 1 0 0 ""
  XDAT 18 3.0620564E-13 0 0 1 0 0 ""
  XDAT 19 -3.4565295E-14 0 0 1 0 0 ""
  XDAT 20 3.2062861E-15 0 0 1 0 0 ""
  XDAT 21 -8.4800996E-16 0 0 1 0 0 ""
  XDAT 22 8.6893598E-17 0 0 1 0 0 ""
  DISZ  0.75
  CONI  0
  GLAS  ___BLANK 1 0 1.58313 59.38 0 0 0 0 0 0
  DIAM  6 1 0 0 1 ""
  POPS 0 0 0 0 0 0 0 0 1 1 1 1 0 0 0 0
SURF 18
  TYPE XOSPHERE
  CURV 0.00185532543335764 0 0 0 0
  HIDE 0 0 0 0 0 0 0 0 0 0
  MIRR 2 0
  XDAT 1 20 0 0 1 0 0 ""
  XDAT 2 1 0 0 1 0 0 ""
  XDAT 3 0 0 0 1 0 0 ""
  XDAT 4 0 0 0 1 0 0 ""
  XDAT 5 0 0 0 1 0 0 ""
  XDAT 6 8.4593296E-04 0 0 1 0 0 ""
  XDAT 7 -1.0174400E-04 0 0 1 0 0 ""
  XDAT 8 -1.0893908E-05 0 0 1 0 0 ""
  XDAT 9 1.6115318E-06 0 0 1 0 0 ""
  XDAT 10 3.6642342E-07 0 0 1 0 0 ""
  XDAT 11 -6.6077822E-09 0 0 1 0 0 ""
  XDAT 12 1.3845027E-09 0 0 1 0 0 ""
  XDAT 13 -2.6787740E-09 0 0 1 0 0 ""
  XDAT 14 -2.5304970E-10 0 0 1 0 0 ""
  XDAT 15 2.4784233E-11 0 0 1 0 0 ""
  XDAT 16 1.4336896E-11 0 0 1 0 0 ""
  XDAT 17 2.0857507E-12 0 0 1 0 0 ""
  XDAT 18 -3.4550528E-13 0 0 1 0 0 ""
  XDAT 19 -5.5890953E-14 0 0 1 0 0 ""
  XDAT 20 -2.8207885E-15 0 0 1 0 0 ""
  XDAT 21 2.0201792E-15 0 0 1 0 0 ""
  XDAT 22 -1.1386512E-16 0 0 1 0 0 ""
  DISZ  7.13
  CONI  0
  DIAM  6.25 1 0 0 1 ""
  POPS 0 0 0 0 0 0 0 0 1 1 1 1 0 0 0 0
SURF 19
  TYPE STANDARD
  CURV 0.00500550605666233 0 0 0 0
  HIDE 0 0 0 0 0 0 0 0 0 0
  MIRR 2 0
  DISZ  3.13
  GLAS  ___BLANK 1 0 1.80400 46.53 0 0 0 0 0 0
  DIAM  14.25 1 0 0 1 ""
  POPS 0 0 0 0 0 0 0 0 1 1 1 1 0 0 0 0
SURF 20
  TYPE STANDARD
  CURV -0.0179966166360724 0 0 0 0
  HIDE 0 0 0 0 0 0 0 0 0 0
  MIRR 2 0
  DISZ  7.33
  DIAM  14.25 1 0 0 1 ""
  POPS 0 0 0 0 0 0 0 0 1 1 1 1 0 0 0 0
SURF 21
  TYPE STANDARD
  CURV 0 0 0 0 0
  HIDE 0 0 0 0 0 0 0 0 0 0
  MIRR 2 0
  DISZ  2.85
  GLAS  ___BLANK 1 0 1.51633 64.14 0 0 0 0 0 0
  DIAM  20.43 1 0 0 1 ""
  POPS 0 0 0 0 0 0 0 0 1 1 1 1 0 0 0 0
SURF 22
  TYPE STANDARD
  CURV 0 0 0 0 0
  HIDE 0 0 0 0 0 0 0 0 0 0
  MIRR 2 0
  DISZ  2.14
  DIAM  20.43 1 0 0 1 ""
  POPS 0 0 0 0 0 0 0 0 1 1 1 1 0 0 0 0
SURF 23
  TYPE STANDARD
  CURV 0.0 0 0 0 0 ""
  HIDE 0 0 0 0 0 0 0 0 0 0
  MIRR 2 0
  DISZ 0
  DIAM 14 1 0 0 1 ""
  POPS 0 0 0 0 0 0 0 0 1 1 1 1 0 0 0 0
TOL TOFF   0   0              0              0   0 0 0 0
MNUM 6 1
SDIA   9   1 4.689 0 0 0 1 1 1 0 0
SDIA   9   2 5.2645 0 0 0 1 1 1 0 0
SDIA   9   3 5.2655 0 0 0 1 1 1 0 0
SDIA   9   4 4.689 0 0 0 1 1 1 0 0
SDIA   9   5 5.2645 0 0 0 1 1 1 0 0
SDIA   9   6 5.2655 0 0 0 1 1 1 0 0
THIC   0   1 1.00E+10 0 0 0 1 1 1 0 0
THIC   0   2 1.00E+10 0 0 0 1 1 1 0 0
THIC   0   3 1.00E+10 0 0 0 1 1 1 0 0
THIC   0   4 11896.09 0 0 0 1 1 1 0 0
THIC   0   5 1492.91 0 0 0 1 1 1 0 0
THIC   0   6 1073.71 0 0 0 1 1 1 0 0
THIC   6   1 24.57 0 0 0 1 1 1 0 0
THIC   6   2 10.26 0 0 0 1 1 1 0 0
THIC   6   3 0.34 0 0 0 1 1 1 0 0
THIC   6   4 24.57 0 0 0 1 1 1 0 0
THIC   6   5 10.26 0 0 0 1 1 1 0 0
THIC   6   6 0.34 0 0 0 1 1 1 0 0
THIC   16   1 2.38 0 0 0 1 1 1 0 0
THIC   16   2 5.33 0 0 0 1 1 1 0 0
THIC   16   3 12.39 0 0 0 1 1 1 0 0
THIC   16   4 2.63 0 0 0 1 1 1 0 0
THIC   16   5 5.87 0 0 0 1 1 1 0 0
THIC   16   6 13.68 0 0 0 1 1 1 0 0
THIC   18   1 7.13 0 0 0 1 1 1 0 0
THIC   18   2 13.30 0 0 0 1 1 1 0 0
THIC   18   3 18.25 0 0 0 1 1 1 0 0
THIC   18   4 6.88 0 0 0 1 1 1 0 0
THIC   18   5 12.76 0 0 0 1 1 1 0 0
THIC   18   6 16.96 0 0 0 1 1 1 0 0
THIC   23   1 28.0 0 0 0 1 1 1 0 0
THIC   23   2 28.2 0 0 0 1 1 1 0 0
THIC   23   3 28.2 0 0 0 1 1 1 0 0
THIC   23   4 28.0 0 0 0 1 1 1 0 0
THIC   23   5 28.2 0 0 0 1 1 1 0 0
THIC   23   6 28.2 0 0 0 1 1 1 0 0
