VERS 161019 507 33785
MODE SEQ
NAME US 2015/0168697 Example 4 (Olympus M.Zuiko ED 40-150mm F2.8 Pro)
NOTE 0 Prepared and converted by Bill Claff.
PFIL 0 0 0
LANG 0
UNIT MM X W X CM MR CPMM
FLOA
ENVD 20 1 0
GFAC 0 0
RAIM 0 2 1 1 0 1 0 0 0
SDMA 0 1 0
FTYP 3 0 3 3 0 0 0
ROPD 2
HYPR 0
PICB 1
XFLN 0 0 0 0 0 0 0 0 0 0 0 0
YFLN 0 7.574 10.82 0 0 0 0 0 0 0 0 0 0
FWGN 1 1 1 1 1 1 1 1 1 1 1 1
VDXN 0 0 0 0 0 0 0 0 0 0 0 0
VDYN 0 0 0 0 0 0 0 0 0 0 0 0
VCXN 0 0 0 0 0 0 0 0 0 0 0 0
VCYN 0 0 0 0 0 0 0 0 0 0 0 0
VANN 0 0 0 0 0 0 0 0 0 0 0 0
WAVM 1 0.4861327 1
WAVM 2 0.5875618 1
WAVM 3 0.6562725 1
WAVM 4 0.550 1
WAVM 5 0.550 1
WAVM 6 0.550 1
WAVM 7 0.550 1
WAVM 8 0.550 1
WAVM 9 0.550 1
WAVM 10 0.550 1
WAVM 11 0.550 1
WAVM 12 0.550 1
WAVM 13 0.550 1
WAVM 14 0.550 1
WAVM 15 0.550 1
WAVM 16 0.550 1
WAVM 17 0.550 1
WAVM 18 0.550 1
WAVM 19 0.550 1
WAVM 20 0.550 1
WAVM 21 0.550 1
WAVM 22 0.550 1
WAVM 23 0.550 1
WAVM 24 0.550 1
PWAV 2
POLS 1 0 1 0 0 1 0
GSTD 0 100 100 100 100 100 100 0 1 1 0 0 1 1 1 1 1 1
NSCD 100 500 0 1.0E-3 5 1.0E-6 0 0 0 0 0 0 1000000 0 2
SURF 0
  TYPE STANDARD
  CURV 0.0 0 0 0 0 ""
  HIDE 0 0 0 0 0 0 0 0 0 0
  MIRR 2 0
  DISZ INFINITY
  DIAM 0 1 0 0 1 ""
  POPS 0 0 0 0 0 0 0 0 1 1 1 1 0 0 0 0
SURF 1
  TYPE STANDARD
  CURV 0.00729784246585339 0 0 0 0
  HIDE 0 0 0 0 0 0 0 0 0 0
  MIRR 2 0
  DISZ  2.6
  GLAS  ___BLANK 1 0 1.78470 26.29 0 0 0 0 0 0
  DIAM  28.77 1 0 0 1 ""
  POPS 0 0 0 0 0 0 0 0 1 1 1 1 0 0 0 0
SURF 2
  TYPE STANDARD
  CURV 0.0115405743513043 0 0 0 0
  HIDE 0 0 0 0 0 0 0 0 0 0
  MIRR 2 0
  DISZ  7.76
  GLAS  ___BLANK 1 0 1.49700 81.61 0 0 0 0 0 0
  DIAM  28.23 1 0 0 1 ""
  POPS 0 0 0 0 0 0 0 0 1 1 1 1 0 0 0 0
SURF 3
  TYPE STANDARD
  CURV -0.00310938602374514 0 0 0 0
  HIDE 0 0 0 0 0 0 0 0 0 0
  MIRR 2 0
  DISZ  0.15
  DIAM  28.23 1 0 0 1 ""
  POPS 0 0 0 0 0 0 0 0 1 1 1 1 0 0 0 0
SURF 4
  TYPE STANDARD
  CURV 0.0103289352726942 0 0 0 0
  HIDE 0 0 0 0 0 0 0 0 0 0
  MIRR 2 0
  DISZ  5.26
  GLAS  ___BLANK 1 0 1.43875 94.93 0 0 0 0 0 0
  DIAM  27.26 1 0 0 1 ""
  POPS 0 0 0 0 0 0 0 0 1 1 1 1 0 0 0 0
SURF 5
  TYPE STANDARD
  CURV 0.00160193077512464 0 0 0 0
  HIDE 0 0 0 0 0 0 0 0 0 0
  MIRR 2 0
  DISZ  2.56328
  DIAM  27.26 1 0 0 1 ""
  POPS 0 0 0 0 0 0 0 0 1 1 1 1 0 0 0 0
SURF 6
  TYPE STANDARD
  CURV -0.00440128059660239 0 0 0 0
  HIDE 0 0 0 0 0 0 0 0 0 0
  MIRR 2 0
  DISZ  3.37
  GLAS  ___BLANK 1 0 1.80810 22.76 0 0 0 0 0 0
  DIAM  17.05 1 0 0 1 ""
  POPS 0 0 0 0 0 0 0 0 1 1 1 1 0 0 0 0
SURF 7
  TYPE STANDARD
  CURV -0.0168329198046035 0 0 0 0
  HIDE 0 0 0 0 0 0 0 0 0 0
  MIRR 2 0
  DISZ  1.6
  GLAS  ___BLANK 1 0 1.48749 70.23 0 0 0 0 0 0
  DIAM  17.71 1 0 0 1 ""
  POPS 0 0 0 0 0 0 0 0 1 1 1 1 0 0 0 0
SURF 8
  TYPE STANDARD
  CURV 0.032431626024434 0 0 0 0
  HIDE 0 0 0 0 0 0 0 0 0 0
  MIRR 2 0
  DISZ  2.75
  GLAS  ___BLANK 1 0 1.80000 29.84 0 0 0 0 0 0
  DIAM  15.03 1 0 0 1 ""
  POPS 0 0 0 0 0 0 0 0 1 1 1 1 0 0 0 0
SURF 9
  TYPE STANDARD
  CURV 0.0255070807656205 0 0 0 0
  HIDE 0 0 0 0 0 0 0 0 0 0
  MIRR 2 0
  DISZ  4.99
  DIAM  15.03 1 0 0 1 ""
  POPS 0 0 0 0 0 0 0 0 1 1 1 1 0 0 0 0
SURF 10
  TYPE STANDARD
  CURV -0.0201460589272224 0 0 0 0
  HIDE 0 0 0 0 0 0 0 0 0 0
  MIRR 2 0
  DISZ  1.5
  GLAS  ___BLANK 1 0 1.83481 42.73 0 0 0 0 0 0
  DIAM  13.5 1 0 0 1 ""
  POPS 0 0 0 0 0 0 0 0 1 1 1 1 0 0 0 0
SURF 11
  TYPE STANDARD
  CURV 0.00218283848021181 0 0 0 0
  HIDE 0 0 0 0 0 0 0 0 0 0
  MIRR 2 0
  DISZ  53.22784
  DIAM  13.5 1 0 0 1 ""
  POPS 0 0 0 0 0 0 0 0 1 1 1 1 0 0 0 0
SURF 12
  STOP
  TYPE STANDARD
  CURV 0 0 0 0 0
  HIDE 0 0 0 0 0 0 0 0 0 0
  MIRR 2 0
  DISZ  1.8
  DIAM  12.2835 1 0 0 1 ""
  POPS 0 0 0 0 0 0 0 0 1 1 1 1 0 0 0 0
SURF 13
  TYPE EVENASPH
  CURV 0.0253554838840544 0 0 0 0
  HIDE 0 0 0 0 0 0 0 0 0 0
  MIRR 2 0
  PARM 1 0
  PARM 2 -3.1251E-06
  PARM 3 -3.8756E-10
  PARM 4 5.5927E-11
  PARM 5 -1.4099E-13
  PARM 6 0
  PARM 7 0
  PARM 8 0
  DISZ  5.76
  CONI  0
  GLAS  ___BLANK 1 0 1.49700 81.61 0 0 0 0 0 0
  DIAM  15.2 1 0 0 1 ""
  POPS 0 0 0 0 0 0 0 0 1 1 1 1 0 0 0 0
SURF 14
  TYPE EVENASPH
  CURV -0.0114031066623791 0 0 0 0
  HIDE 0 0 0 0 0 0 0 0 0 0
  MIRR 2 0
  PARM 1 0
  PARM 2 1.0047E-05
  PARM 3 -3.0390E-10
  PARM 4 5.4533E-11
  PARM 5 -1.3296E-13
  PARM 6 0
  PARM 7 0
  PARM 8 0
  DISZ  7.98
  CONI  0
  DIAM  15.2 1 0 0 1 ""
  POPS 0 0 0 0 0 0 0 0 1 1 1 1 0 0 0 0
SURF 15
  TYPE STANDARD
  CURV 0.0142223031313245 0 0 0 0
  HIDE 0 0 0 0 0 0 0 0 0 0
  MIRR 2 0
  DISZ  1.5
  GLAS  ___BLANK 1 0 1.84666 23.78 0 0 0 0 0 0
  DIAM  14.79 1 0 0 1 ""
  POPS 0 0 0 0 0 0 0 0 1 1 1 1 0 0 0 0
SURF 16
  TYPE STANDARD
  CURV 0.0304643064952948 0 0 0 0
  HIDE 0 0 0 0 0 0 0 0 0 0
  MIRR 2 0
  DISZ  6.58
  GLAS  ___BLANK 1 0 1.59282 68.63 0 0 0 0 0 0
  DIAM  13.78 1 0 0 1 ""
  POPS 0 0 0 0 0 0 0 0 1 1 1 1 0 0 0 0
SURF 17
  TYPE STANDARD
  CURV -0.0194118971635336 0 0 0 0
  HIDE 0 0 0 0 0 0 0 0 0 0
  MIRR 2 0
  DISZ  0.15
  DIAM  13.78 1 0 0 1 ""
  POPS 0 0 0 0 0 0 0 0 1 1 1 1 0 0 0 0
SURF 18
  TYPE STANDARD
  CURV 0.0077269720778137 0 0 0 0
  HIDE 0 0 0 0 0 0 0 0 0 0
  MIRR 2 0
  DISZ  3.1
  GLAS  ___BLANK 1 0 1.49700 81.61 0 0 0 0 0 0
  DIAM  13.61 1 0 0 1 ""
  POPS 0 0 0 0 0 0 0 0 1 1 1 1 0 0 0 0
SURF 19
  TYPE STANDARD
  CURV -0.0106307206565533 0 0 0 0
  HIDE 0 0 0 0 0 0 0 0 0 0
  MIRR 2 0
  DISZ  2.5
  DIAM  13.61 1 0 0 1 ""
  POPS 0 0 0 0 0 0 0 0 1 1 1 1 0 0 0 0
SURF 20
  TYPE STANDARD
  CURV 0.0012662302224336 0 0 0 0
  HIDE 0 0 0 0 0 0 0 0 0 0
  MIRR 2 0
  DISZ  2
  GLAS  ___BLANK 1 0 1.92286 18.90 0 0 0 0 0 0
  DIAM  9.92 1 0 0 1 ""
  POPS 0 0 0 0 0 0 0 0 1 1 1 1 0 0 0 0
SURF 21
  TYPE STANDARD
  CURV -0.0115545757275339 0 0 0 0
  HIDE 0 0 0 0 0 0 0 0 0 0
  MIRR 2 0
  DISZ  1
  GLAS  ___BLANK 1 0 1.74320 49.29 0 0 0 0 0 0
  DIAM  9.92 1 0 0 1 ""
  POPS 0 0 0 0 0 0 0 0 1 1 1 1 0 0 0 0
SURF 22
  TYPE EVENASPH
  CURV 0.046166346579997 0 0 0 0
  HIDE 0 0 0 0 0 0 0 0 0 0
  MIRR 2 0
  PARM 1 0
  PARM 2 -2.5854E-06
  PARM 3 2.4119E-09
  PARM 4 -7.1028E-11
  PARM 5 1.4991E-13
  PARM 6 0
  PARM 7 0
  PARM 8 0
  DISZ  17.30858
  CONI  -0.0326
  DIAM  8.1 1 0 0 1 ""
  POPS 0 0 0 0 0 0 0 0 1 1 1 1 0 0 0 0
SURF 23
  TYPE STANDARD
  CURV -0.00280838291065298 0 0 0 0
  HIDE 0 0 0 0 0 0 0 0 0 0
  MIRR 2 0
  DISZ  1
  GLAS  ___BLANK 1 0 1.62004 36.26 0 0 0 0 0 0
  DIAM  11.63 1 0 0 1 ""
  POPS 0 0 0 0 0 0 0 0 1 1 1 1 0 0 0 0
SURF 24
  TYPE STANDARD
  CURV 0.0347222222222222 0 0 0 0
  HIDE 0 0 0 0 0 0 0 0 0 0
  MIRR 2 0
  DISZ  3.06837
  DIAM  10.12 1 0 0 1 ""
  POPS 0 0 0 0 0 0 0 0 1 1 1 1 0 0 0 0
SURF 25
  TYPE EVENASPH
  CURV 0.0316369595616383 0 0 0 0
  HIDE 0 0 0 0 0 0 0 0 0 0
  MIRR 2 0
  PARM 1 0
  PARM 2 7.9298E-07
  PARM 3 -2.8322E-09
  PARM 4 2.5344E-12
  PARM 5 0
  PARM 6 0
  PARM 7 0
  PARM 8 0
  DISZ  9.58
  CONI  -0.7171
  GLAS  ___BLANK 1 0 1.80610 40.88 0 0 0 0 0 0
  DIAM  13.59 1 0 0 1 ""
  POPS 0 0 0 0 0 0 0 0 1 1 1 1 0 0 0 0
SURF 26
  TYPE STANDARD
  CURV -0.0416666666666667 0 0 0 0
  HIDE 0 0 0 0 0 0 0 0 0 0
  MIRR 2 0
  DISZ  1.3
  GLAS  ___BLANK 1 0 1.64769 33.79 0 0 0 0 0 0
  DIAM  13.59 1 0 0 1 ""
  POPS 0 0 0 0 0 0 0 0 1 1 1 1 0 0 0 0
SURF 27
  TYPE STANDARD
  CURV 0 0 0 0 0
  HIDE 0 0 0 0 0 0 0 0 0 0
  MIRR 2 0
  DISZ  26.0632
  DIAM  13.59 1 0 0 1 ""
  POPS 0 0 0 0 0 0 0 0 1 1 1 1 0 0 0 0
SURF 28
  TYPE STANDARD
  CURV 0 0 0 0 0
  HIDE 0 0 0 0 0 0 0 0 0 0
  MIRR 2 0
  DISZ  4
  GLAS  ___BLANK 1 0 1.51633 64.14 0 0 0 0 0 0
  DIAM  14.34 1 0 0 1 ""
  POPS 0 0 0 0 0 0 0 0 1 1 1 1 0 0 0 0
SURF 29
  TYPE STANDARD
  CURV 0 0 0 0 0
  HIDE 0 0 0 0 0 0 0 0 0 0
  MIRR 2 0
  DISZ  0.8
  DIAM  14.34 1 0 0 1 ""
  POPS 0 0 0 0 0 0 0 0 1 1 1 1 0 0 0 0
SURF 30
  TYPE STANDARD
  CURV 0.0 0 0 0 0 ""
  HIDE 0 0 0 0 0 0 0 0 0 0
  MIRR 2 0
  DISZ 0
  DIAM 10.82 1 0 0 1 ""
  POPS 0 0 0 0 0 0 0 0 1 1 1 1 0 0 0 0
TOL TOFF   0   0              0              0   0 0 0 0
MNUM 6 1
SDIA   12   1 12.2835 0 0 0 1 1 1 0 0
SDIA   12   2 12.3295 0 0 0 1 1 1 0 0
SDIA   12   3 12.4125 0 0 0 1 1 1 0 0
SDIA   12   4 12.2835 0 0 0 1 1 1 0 0
SDIA   12   5 12.3295 0 0 0 1 1 1 0 0
SDIA   12   6 12.4125 0 0 0 1 1 1 0 0
THIC   0   1 1.00E+10 0 0 0 1 1 1 0 0
THIC   0   2 1.00E+10 0 0 0 1 1 1 0 0
THIC   0   3 1.00E+10 0 0 0 1 1 1 0 0
THIC   0   4 520.10 0 0 0 1 1 1 0 0
THIC   0   5 520.10 0 0 0 1 1 1 0 0
THIC   0   6 520.10 0 0 0 1 1 1 0 0
THIC   5   1 2.56328 0 0 0 1 1 1 0 0
THIC   5   2 30.41889 0 0 0 1 1 1 0 0
THIC   5   3 53.87892 0 0 0 1 1 1 0 0
THIC   5   4 2.56328 0 0 0 1 1 1 0 0
THIC   5   5 30.41889 0 0 0 1 1 1 0 0
THIC   5   6 53.87892 0 0 0 1 1 1 0 0
THIC   11   1 53.22784 0 0 0 1 1 1 0 0
THIC   11   2 25.37230 0 0 0 1 1 1 0 0
THIC   11   3 1.91217 0 0 0 1 1 1 0 0
THIC   11   4 53.22784 0 0 0 1 1 1 0 0
THIC   11   5 25.37230 0 0 0 1 1 1 0 0
THIC   11   6 1.91217 0 0 0 1 1 1 0 0
THIC   19   1 2.50000 0 0 0 1 1 1 0 0
THIC   19   2 4.62391 0 0 0 1 1 1 0 0
THIC   19   3 3.89046 0 0 0 1 1 1 0 0
THIC   19   4 3.12034 0 0 0 1 1 1 0 0
THIC   19   5 6.98082 0 0 0 1 1 1 0 0
THIC   19   6 12.71907 0 0 0 1 1 1 0 0
THIC   22   1 17.30858 0 0 0 1 1 1 0 0
THIC   22   2 14.85531 0 0 0 1 1 1 0 0
THIC   22   3 16.19460 0 0 0 1 1 1 0 0
THIC   22   4 17.25696 0 0 0 1 1 1 0 0
THIC   22   5 13.14454 0 0 0 1 1 1 0 0
THIC   22   6 6.51353 0 0 0 1 1 1 0 0
THIC   24   1 3.06837 0 0 0 1 1 1 0 0
THIC   24   2 3.39767 0 0 0 1 1 1 0 0
THIC   24   3 2.79195 0 0 0 1 1 1 0 0
THIC   24   4 2.50000 0 0 0 1 1 1 0 0
THIC   24   5 2.75153 0 0 0 1 1 1 0 0
THIC   24   6 3.64447 0 0 0 1 1 1 0 0
