VERS 161019 507 33785
MODE SEQ
NAME WO 2021/070285 Example 1 (Olympus M.Zuiko ED 12-45mm F4.0 Pro)
NOTE 0 Prepared and converted by Bill Claff.
PFIL 0 0 0
LANG 0
UNIT MM X W X CM MR CPMM
FLOA
ENVD 20 1 0
GFAC 0 0
RAIM 0 2 1 1 0 1 0 0 0
SDMA 0 1 0
FTYP 3 0 3 3 0 0 0
ROPD 2
HYPR 0
PICB 1
XFLN 0 0 0 0 0 0 0 0 0 0 0 0
YFLN 0 7.574 10.82 0 0 0 0 0 0 0 0 0 0
FWGN 1 1 1 1 1 1 1 1 1 1 1 1
VDXN 0 0 0 0 0 0 0 0 0 0 0 0
VDYN 0 0 0 0 0 0 0 0 0 0 0 0
VCXN 0 0 0 0 0 0 0 0 0 0 0 0
VCYN 0 0 0 0 0 0 0 0 0 0 0 0
VANN 0 0 0 0 0 0 0 0 0 0 0 0
WAVM 1 0.4861327 1
WAVM 2 0.5875618 1
WAVM 3 0.6562725 1
WAVM 4 0.550 1
WAVM 5 0.550 1
WAVM 6 0.550 1
WAVM 7 0.550 1
WAVM 8 0.550 1
WAVM 9 0.550 1
WAVM 10 0.550 1
WAVM 11 0.550 1
WAVM 12 0.550 1
WAVM 13 0.550 1
WAVM 14 0.550 1
WAVM 15 0.550 1
WAVM 16 0.550 1
WAVM 17 0.550 1
WAVM 18 0.550 1
WAVM 19 0.550 1
WAVM 20 0.550 1
WAVM 21 0.550 1
WAVM 22 0.550 1
WAVM 23 0.550 1
WAVM 24 0.550 1
PWAV 2
POLS 1 0 1 0 0 1 0
GSTD 0 100 100 100 100 100 100 0 1 1 0 0 1 1 1 1 1 1
NSCD 100 500 0 1.0E-3 5 1.0E-6 0 0 0 0 0 0 1000000 0 2
SURF 0
  TYPE STANDARD
  CURV 0.0 0 0 0 0 ""
  HIDE 0 0 0 0 0 0 0 0 0 0
  MIRR 2 0
  DISZ INFINITY
  DIAM 0 1 0 0 1 ""
  POPS 0 0 0 0 0 0 0 0 1 1 1 1 0 0 0 0
SURF 1
  TYPE STANDARD
  CURV 0.0208973314107788 0 0 0 0
  HIDE 0 0 0 0 0 0 0 0 0 0
  MIRR 2 0
  DISZ  1.8
  GLAS  ___BLANK 1 0 1.92286 18.90 0 0 0 0 0 0
  DIAM  20.02 1 0 0 1 ""
  POPS 0 0 0 0 0 0 0 0 1 1 1 1 0 0 0 0
SURF 2
  TYPE STANDARD
  CURV 0.0275368305108082 0 0 0 0
  HIDE 0 0 0 0 0 0 0 0 0 0
  MIRR 2 0
  DISZ  6.2
  GLAS  ___BLANK 1 0 1.77250 49.60 0 0 0 0 0 0
  DIAM  19.09 1 0 0 1 ""
  POPS 0 0 0 0 0 0 0 0 1 1 1 1 0 0 0 0
SURF 3
  TYPE STANDARD
  CURV 0.00422631047321998 0 0 0 0
  HIDE 0 0 0 0 0 0 0 0 0 0
  MIRR 2 0
  DISZ  0.76
  DIAM  19.09 1 0 0 1 ""
  POPS 0 0 0 0 0 0 0 0 1 1 1 1 0 0 0 0
SURF 4
  TYPE STANDARD
  CURV 0.0139425288958911 0 0 0 0
  HIDE 0 0 0 0 0 0 0 0 0 0
  MIRR 2 0
  DISZ  1.2
  GLAS  ___BLANK 1 0 1.83481 42.74 0 0 0 0 0 0
  DIAM  12.21 1 0 0 1 ""
  POPS 0 0 0 0 0 0 0 0 1 1 1 1 0 0 0 0
SURF 5
  TYPE STANDARD
  CURV 0.0987751876728566 0 0 0 0
  HIDE 0 0 0 0 0 0 0 0 0 0
  MIRR 2 0
  DISZ  6.86
  DIAM  8.88 1 0 0 1 ""
  POPS 0 0 0 0 0 0 0 0 1 1 1 1 0 0 0 0
SURF 6
  TYPE EVENASPH
  CURV -0.0367620027939122 0 0 0 0
  HIDE 0 0 0 0 0 0 0 0 0 0
  MIRR 2 0
  PARM 1 0
  PARM 2 -1.03051E-04
  PARM 3 2.10669E-06
  PARM 4 -2.80389E-08
  PARM 5 1.20443E-10
  PARM 6 0
  PARM 7 0
  PARM 8 0
  DISZ  0.9
  CONI  0
  GLAS  ___BLANK 1 0 1.58313 59.38 0 0 0 0 0 0
  DIAM  8.6 1 0 0 1 ""
  POPS 0 0 0 0 0 0 0 0 1 1 1 1 0 0 0 0
SURF 7
  TYPE EVENASPH
  CURV 0.0274122807017544 0 0 0 0
  HIDE 0 0 0 0 0 0 0 0 0 0
  MIRR 2 0
  PARM 1 0
  PARM 2 -1.37375E-04
  PARM 3 2.29620E-06
  PARM 4 -3.34216E-08
  PARM 5 1.73499E-10
  PARM 6 0
  PARM 7 0
  PARM 8 0
  DISZ  0.7
  CONI  0
  DIAM  8.6 1 0 0 1 ""
  POPS 0 0 0 0 0 0 0 0 1 1 1 1 0 0 0 0
SURF 8
  TYPE STANDARD
  CURV 0.0256383960619424 0 0 0 0
  HIDE 0 0 0 0 0 0 0 0 0 0
  MIRR 2 0
  DISZ  3.5
  GLAS  ___BLANK 1 0 2.00100 29.13 0 0 0 0 0 0
  DIAM  8.22 1 0 0 1 ""
  POPS 0 0 0 0 0 0 0 0 1 1 1 1 0 0 0 0
SURF 9
  TYPE STANDARD
  CURV -0.0256383960619424 0 0 0 0
  HIDE 0 0 0 0 0 0 0 0 0 0
  MIRR 2 0
  DISZ  0.6
  GLAS  ___BLANK 1 0 1.71999 50.23 0 0 0 0 0 0
  DIAM  8 1 0 0 1 ""
  POPS 0 0 0 0 0 0 0 0 1 1 1 1 0 0 0 0
SURF 10
  TYPE STANDARD
  CURV -7.85666118769304E-05 0 0 0 0
  HIDE 0 0 0 0 0 0 0 0 0 0
  MIRR 2 0
  DISZ  22.02
  DIAM  8 1 0 0 1 ""
  POPS 0 0 0 0 0 0 0 0 1 1 1 1 0 0 0 0
SURF 11
  STOP
  TYPE STANDARD
  CURV 0 0 0 0 0
  HIDE 0 0 0 0 0 0 0 0 0 0
  MIRR 2 0
  DISZ  1
  DIAM  4.079 1 0 0 1 ""
  POPS 0 0 0 0 0 0 0 0 1 1 1 1 0 0 0 0
SURF 12
  TYPE EVENASPH
  CURV 0.054585152838428 0 0 0 0
  HIDE 0 0 0 0 0 0 0 0 0 0
  MIRR 2 0
  PARM 1 0
  PARM 2 -1.04826E-05
  PARM 3 1.71953E-07
  PARM 4 -4.29469E-09
  PARM 5 0
  PARM 6 0
  PARM 7 0
  PARM 8 0
  DISZ  2.67
  CONI  0
  GLAS  ___BLANK 1 0 1.74320 49.34 0 0 0 0 0 0
  DIAM  7.02 1 0 0 1 ""
  POPS 0 0 0 0 0 0 0 0 1 1 1 1 0 0 0 0
SURF 13
  TYPE EVENASPH
  CURV 0.01 0 0 0 0
  HIDE 0 0 0 0 0 0 0 0 0 0
  MIRR 2 0
  PARM 1 0
  PARM 2 3.27632E-05
  PARM 3 2.08660E-07
  PARM 4 -4.65262E-09
  PARM 5 0
  PARM 6 0
  PARM 7 0
  PARM 8 0
  DISZ  2.8
  CONI  0
  DIAM  7.02 1 0 0 1 ""
  POPS 0 0 0 0 0 0 0 0 1 1 1 1 0 0 0 0
SURF 14
  TYPE STANDARD
  CURV 0.0445057634963728 0 0 0 0
  HIDE 0 0 0 0 0 0 0 0 0 0
  MIRR 2 0
  DISZ  3.29
  GLAS  ___BLANK 1 0 1.49700 81.54 0 0 0 0 0 0
  DIAM  6.86 1 0 0 1 ""
  POPS 0 0 0 0 0 0 0 0 1 1 1 1 0 0 0 0
SURF 15
  TYPE STANDARD
  CURV -0.0227272727272727 0 0 0 0
  HIDE 0 0 0 0 0 0 0 0 0 0
  MIRR 2 0
  DISZ  0.2
  DIAM  6.86 1 0 0 1 ""
  POPS 0 0 0 0 0 0 0 0 1 1 1 1 0 0 0 0
SURF 16
  TYPE STANDARD
  CURV 0.025 0 0 0 0
  HIDE 0 0 0 0 0 0 0 0 0 0
  MIRR 2 0
  DISZ  0.6
  GLAS  ___BLANK 1 0 1.91082 35.25 0 0 0 0 0 0
  DIAM  6.42 1 0 0 1 ""
  POPS 0 0 0 0 0 0 0 0 1 1 1 1 0 0 0 0
SURF 17
  TYPE STANDARD
  CURV 0.105887335874629 0 0 0 0
  HIDE 0 0 0 0 0 0 0 0 0 0
  MIRR 2 0
  DISZ  4.72
  GLAS  ___BLANK 1 0 1.49700 81.54 0 0 0 0 0 0
  DIAM  6.15 1 0 0 1 ""
  POPS 0 0 0 0 0 0 0 0 1 1 1 1 0 0 0 0
SURF 18
  TYPE STANDARD
  CURV -0.0309415514093877 0 0 0 0
  HIDE 0 0 0 0 0 0 0 0 0 0
  MIRR 2 0
  DISZ  2.59
  DIAM  6.15 1 0 0 1 ""
  POPS 0 0 0 0 0 0 0 0 1 1 1 1 0 0 0 0
SURF 19
  TYPE EVENASPH
  CURV -0.0155482306113564 0 0 0 0
  HIDE 0 0 0 0 0 0 0 0 0 0
  MIRR 2 0
  PARM 1 0
  PARM 2 9.83534E-05
  PARM 3 -3.03476E-07
  PARM 4 0
  PARM 5 0
  PARM 6 0
  PARM 7 0
  PARM 8 0
  DISZ  1
  CONI  0
  GLAS  ___BLANK 1 0 1.53071 55.69 0 0 0 0 0 0
  DIAM  7.57 1 0 0 1 ""
  POPS 0 0 0 0 0 0 0 0 1 1 1 1 0 0 0 0
SURF 20
  TYPE EVENASPH
  CURV 0.0491400491400491 0 0 0 0
  HIDE 0 0 0 0 0 0 0 0 0 0
  MIRR 2 0
  PARM 1 0
  PARM 2 1.18832E-04
  PARM 3 -8.06363E-07
  PARM 4 3.82351E-09
  PARM 5 -3.68592E-11
  PARM 6 0
  PARM 7 0
  PARM 8 0
  DISZ  5.05
  CONI  0
  DIAM  7.57 1 0 0 1 ""
  POPS 0 0 0 0 0 0 0 0 1 1 1 1 0 0 0 0
SURF 21
  TYPE STANDARD
  CURV 0.0357142857142857 0 0 0 0
  HIDE 0 0 0 0 0 0 0 0 0 0
  MIRR 2 0
  DISZ  5.23
  GLAS  ___BLANK 1 0 1.51823 58.90 0 0 0 0 0 0
  DIAM  11.17 1 0 0 1 ""
  POPS 0 0 0 0 0 0 0 0 1 1 1 1 0 0 0 0
SURF 22
  TYPE STANDARD
  CURV -0.0117241541022815 0 0 0 0
  HIDE 0 0 0 0 0 0 0 0 0 0
  MIRR 2 0
  DISZ  10.14
  DIAM  11.17 1 0 0 1 ""
  POPS 0 0 0 0 0 0 0 0 1 1 1 1 0 0 0 0
SURF 23
  TYPE STANDARD
  CURV 0 0 0 0 0
  HIDE 0 0 0 0 0 0 0 0 0 0
  MIRR 2 0
  DISZ  4.11
  GLAS  ___BLANK 1 0 1.51633 64.14 0 0 0 0 0 0
  DIAM  11.15 1 0 0 1 ""
  POPS 0 0 0 0 0 0 0 0 1 1 1 1 0 0 0 0
SURF 24
  TYPE STANDARD
  CURV 0 0 0 0 0
  HIDE 0 0 0 0 0 0 0 0 0 0
  MIRR 2 0
  DISZ  2
  DIAM  11.15 1 0 0 1 ""
  POPS 0 0 0 0 0 0 0 0 1 1 1 1 0 0 0 0
SURF 25
  TYPE STANDARD
  CURV 0.0 0 0 0 0 ""
  HIDE 0 0 0 0 0 0 0 0 0 0
  MIRR 2 0
  DISZ 0
  DIAM 10.82 1 0 0 1 ""
  POPS 0 0 0 0 0 0 0 0 1 1 1 1 0 0 0 0
TOL TOFF   0   0              0              0   0 0 0 0
MNUM 5 1
SDIA   11   1 4.079 0 0 0 1 1 1 0 0
SDIA   11   2 4.898 0 0 0 1 1 1 0 0
SDIA   11   3 5.895 0 0 0 1 1 1 0 0
SDIA   11   4 4.462 0 0 0 1 1 1 0 0
SDIA   11   5 5.4055 0 0 0 1 1 1 0 0
THIC   3   1 0.76 0 0 0 1 1 1 0 0
THIC   3   2 10.01 0 0 0 1 1 1 0 0
THIC   3   3 24.20 0 0 0 1 1 1 0 0
THIC   3   4 5.21 0 0 0 1 1 1 0 0
THIC   3   5 15.70 0 0 0 1 1 1 0 0
THIC   10   1 22.02 0 0 0 1 1 1 0 0
THIC   10   2 8.68 0 0 0 1 1 1 0 0
THIC   10   3 2.40 0 0 0 1 1 1 0 0
THIC   10   4 14.62 0 0 0 1 1 1 0 0
THIC   10   5 4.48 0 0 0 1 1 1 0 0
THIC   18   1 2.59 0 0 0 1 1 1 0 0
THIC   18   2 7.29 0 0 0 1 1 1 0 0
THIC   18   3 10.21 0 0 0 1 1 1 0 0
THIC   18   4 4.64 0 0 0 1 1 1 0 0
THIC   18   5 9.78 0 0 0 1 1 1 0 0
THIC   20   1 5.05 0 0 0 1 1 1 0 0
THIC   20   2 7.16 0 0 0 1 1 1 0 0
THIC   20   3 12.71 0 0 0 1 1 1 0 0
THIC   20   4 6.35 0 0 0 1 1 1 0 0
THIC   20   5 8.72 0 0 0 1 1 1 0 0
