VERS 161019 507 33785
MODE SEQ
NAME US 8,994,842 Example 1 (Olympus M.Zuiko 14-42mm F3.5-5.6 II R)
NOTE 0 Prepared and converted by Bill Claff.
PFIL 0 0 0
LANG 0
UNIT MM X W X CM MR CPMM
FLOA
ENVD 20 1 0
GFAC 0 0
RAIM 0 2 1 1 0 1 0 0 0
SDMA 0 1 0
FTYP 3 0 3 3 0 0 0
ROPD 2
HYPR 0
PICB 1
XFLN 0 0 0 0 0 0 0 0 0 0 0 0
YFLN 0 7.049 10.07 0 0 0 0 0 0 0 0 0 0
FWGN 1 1 1 1 1 1 1 1 1 1 1 1
VDXN 0 0 0 0 0 0 0 0 0 0 0 0
VDYN 0 0 0 0 0 0 0 0 0 0 0 0
VCXN 0 0 0 0 0 0 0 0 0 0 0 0
VCYN 0 0 0 0 0 0 0 0 0 0 0 0
VANN 0 0 0 0 0 0 0 0 0 0 0 0
WAVM 1 0.4861327 1
WAVM 2 0.5875618 1
WAVM 3 0.6562725 1
WAVM 4 0.550 1
WAVM 5 0.550 1
WAVM 6 0.550 1
WAVM 7 0.550 1
WAVM 8 0.550 1
WAVM 9 0.550 1
WAVM 10 0.550 1
WAVM 11 0.550 1
WAVM 12 0.550 1
WAVM 13 0.550 1
WAVM 14 0.550 1
WAVM 15 0.550 1
WAVM 16 0.550 1
WAVM 17 0.550 1
WAVM 18 0.550 1
WAVM 19 0.550 1
WAVM 20 0.550 1
WAVM 21 0.550 1
WAVM 22 0.550 1
WAVM 23 0.550 1
WAVM 24 0.550 1
PWAV 2
POLS 1 0 1 0 0 1 0
GSTD 0 100 100 100 100 100 100 0 1 1 0 0 1 1 1 1 1 1
NSCD 100 500 0 1.0E-3 5 1.0E-6 0 0 0 0 0 0 1000000 0 2
SURF 0
  TYPE STANDARD
  CURV 0.0 0 0 0 0 ""
  HIDE 0 0 0 0 0 0 0 0 0 0
  MIRR 2 0
  DISZ INFINITY
  DIAM 0 1 0 0 1 ""
  POPS 0 0 0 0 0 0 0 0 1 1 1 1 0 0 0 0
SURF 1
  TYPE STANDARD
  CURV 0.0145645208272648 0 0 0 0
  HIDE 0 0 0 0 0 0 0 0 0 0
  MIRR 2 0
  DISZ  1.8
  GLAS  ___BLANK 1 0 1.78800 47.37 0 0 0 0 0 0
  DIAM  12.21 1 0 0 1 ""
  POPS 0 0 0 0 0 0 0 0 1 1 1 1 0 0 0 0
SURF 2
  TYPE STANDARD
  CURV 0.0810898475510866 0 0 0 0
  HIDE 0 0 0 0 0 0 0 0 0 0
  MIRR 2 0
  DISZ  4.02
  DIAM  9.8 1 0 0 1 ""
  POPS 0 0 0 0 0 0 0 0 1 1 1 1 0 0 0 0
SURF 3
  TYPE EVENASPH
  CURV 0.0125 0 0 0 0
  HIDE 0 0 0 0 0 0 0 0 0 0
  MIRR 2 0
  PARM 1 0
  PARM 2 3.61587E-05
  PARM 3 -4.90569E-07
  PARM 4 5.56253E-09
  PARM 5 -2.97659E-11
  PARM 6 0
  PARM 7 0
  PARM 8 0
  DISZ  2.01
  CONI  55.206
  GLAS  ___BLANK 1 0 1.52542 55.78 0 0 0 0 0 0
  DIAM  9.73 1 0 0 1 ""
  POPS 0 0 0 0 0 0 0 0 1 1 1 1 0 0 0 0
SURF 4
  TYPE EVENASPH
  CURV 0.0518564613150799 0 0 0 0
  HIDE 0 0 0 0 0 0 0 0 0 0
  MIRR 2 0
  PARM 1 0
  PARM 2 2.53915E-05
  PARM 3 -3.87220E-07
  PARM 4 2.80346E-09
  PARM 5 -1.81533E-11
  PARM 6 0
  PARM 7 0
  PARM 8 0
  DISZ  2.79
  CONI  -0.639
  DIAM  9.73 1 0 0 1 ""
  POPS 0 0 0 0 0 0 0 0 1 1 1 1 0 0 0 0
SURF 5
  TYPE STANDARD
  CURV 0.0472813238770686 0 0 0 0
  HIDE 0 0 0 0 0 0 0 0 0 0
  MIRR 2 0
  DISZ  2.88
  GLAS  ___BLANK 1 0 1.84666 23.78 0 0 0 0 0 0
  DIAM  9.24 1 0 0 1 ""
  POPS 0 0 0 0 0 0 0 0 1 1 1 1 0 0 0 0
SURF 6
  TYPE STANDARD
  CURV 0.020867678053463 0 0 0 0
  HIDE 0 0 0 0 0 0 0 0 0 0
  MIRR 2 0
  DISZ  27.79
  DIAM  9.24 1 0 0 1 ""
  POPS 0 0 0 0 0 0 0 0 1 1 1 1 0 0 0 0
SURF 7
  STOP
  TYPE STANDARD
  CURV 0 0 0 0 0
  HIDE 0 0 0 0 0 0 0 0 0 0
  MIRR 2 0
  DISZ  1
  DIAM  5.36785 1 0 0 1 ""
  POPS 0 0 0 0 0 0 0 0 1 1 1 1 0 0 0 0
SURF 8
  TYPE EVENASPH
  CURV 0.0686483146838745 0 0 0 0
  HIDE 0 0 0 0 0 0 0 0 0 0
  MIRR 2 0
  PARM 1 0
  PARM 2 -2.82063E-05
  PARM 3 -2.06359E-07
  PARM 4 7.86736E-09
  PARM 5 -1.77341E-10
  PARM 6 0
  PARM 7 0
  PARM 8 0
  DISZ  3.04
  CONI  0
  GLAS  ___BLANK 1 0 1.58209 59.46 0 0 0 0 0 0
  DIAM  6.69 1 0 0 1 ""
  POPS 0 0 0 0 0 0 0 0 1 1 1 1 0 0 0 0
SURF 9
  TYPE EVENASPH
  CURV -0.0283647709544745 0 0 0 0
  HIDE 0 0 0 0 0 0 0 0 0 0
  MIRR 2 0
  PARM 1 0
  PARM 2 4.86449E-05
  PARM 3 -2.43220E-07
  PARM 4 7.79158E-09
  PARM 5 -1.74694E-10
  PARM 6 0
  PARM 7 0
  PARM 8 0
  DISZ  4.34
  CONI  0
  DIAM  6.69 1 0 0 1 ""
  POPS 0 0 0 0 0 0 0 0 1 1 1 1 0 0 0 0
SURF 10
  TYPE STANDARD
  CURV -0.0101826772294972 0 0 0 0
  HIDE 0 0 0 0 0 0 0 0 0 0
  MIRR 2 0
  DISZ  1.78
  GLAS  ___BLANK 1 0 1.80100 34.97 0 0 0 0 0 0
  DIAM  5.9 1 0 0 1 ""
  POPS 0 0 0 0 0 0 0 0 1 1 1 1 0 0 0 0
SURF 11
  TYPE STANDARD
  CURV 0.0989021857383048 0 0 0 0
  HIDE 0 0 0 0 0 0 0 0 0 0
  MIRR 2 0
  DISZ  4.23
  GLAS  ___BLANK 1 0 1.48749 70.23 0 0 0 0 0 0
  DIAM  5.9 1 0 0 1 ""
  POPS 0 0 0 0 0 0 0 0 1 1 1 1 0 0 0 0
SURF 12
  TYPE STANDARD
  CURV -0.0634678852500635 0 0 0 0
  HIDE 0 0 0 0 0 0 0 0 0 0
  MIRR 2 0
  DISZ  1.95
  DIAM  5.9 1 0 0 1 ""
  POPS 0 0 0 0 0 0 0 0 1 1 1 1 0 0 0 0
SURF 13
  TYPE EVENASPH
  CURV 0.00959287824718929 0 0 0 0
  HIDE 0 0 0 0 0 0 0 0 0 0
  MIRR 2 0
  PARM 1 0
  PARM 2 -4.89530E-05
  PARM 3 1.95403E-06
  PARM 4 -3.39070E-08
  PARM 5 5.00099E-10
  PARM 6 0
  PARM 7 0
  PARM 8 0
  DISZ  1.78
  CONI  10.752
  GLAS  ___BLANK 1 0 1.53071 55.69 0 0 0 0 0 0
  DIAM  5.58 1 0 0 1 ""
  POPS 0 0 0 0 0 0 0 0 1 1 1 1 0 0 0 0
SURF 14
  TYPE EVENASPH
  CURV 0.0452243125904486 0 0 0 0
  HIDE 0 0 0 0 0 0 0 0 0 0
  MIRR 2 0
  PARM 1 0
  PARM 2 -7.81833E-05
  PARM 3 1.74053E-06
  PARM 4 -3.92602E-08
  PARM 5 5.00369E-10
  PARM 6 0
  PARM 7 0
  PARM 8 0
  DISZ  8.59
  CONI  3.686
  DIAM  5.58 1 0 0 1 ""
  POPS 0 0 0 0 0 0 0 0 1 1 1 1 0 0 0 0
SURF 15
  TYPE STANDARD
  CURV -0.0213670648063076 0 0 0 0
  HIDE 0 0 0 0 0 0 0 0 0 0
  MIRR 2 0
  DISZ  1.76
  GLAS  ___BLANK 1 0 1.80518 25.42 0 0 0 0 0 0
  DIAM  10.29 1 0 0 1 ""
  POPS 0 0 0 0 0 0 0 0 1 1 1 1 0 0 0 0
SURF 16
  TYPE STANDARD
  CURV -0.0341366832798525 0 0 0 0
  HIDE 0 0 0 0 0 0 0 0 0 0
  MIRR 2 0
  DISZ  14.01
  DIAM  10.29 1 0 0 1 ""
  POPS 0 0 0 0 0 0 0 0 1 1 1 1 0 0 0 0
SURF 17
  TYPE STANDARD
  CURV 0 0 0 0 0
  HIDE 0 0 0 0 0 0 0 0 0 0
  MIRR 2 0
  DISZ  3.5
  GLAS  ___BLANK 1 0 1.51633 64.14 0 0 0 0 0 0
  DIAM  12.33 1 0 0 1 ""
  POPS 0 0 0 0 0 0 0 0 1 1 1 1 0 0 0 0
SURF 18
  TYPE STANDARD
  CURV 0 0 0 0 0
  HIDE 0 0 0 0 0 0 0 0 0 0
  MIRR 2 0
  DISZ  0.8
  DIAM  12.33 1 0 0 1 ""
  POPS 0 0 0 0 0 0 0 0 1 1 1 1 0 0 0 0
SURF 19
  TYPE STANDARD
  CURV 0.0 0 0 0 0 ""
  HIDE 0 0 0 0 0 0 0 0 0 0
  MIRR 2 0
  DISZ 0
  DIAM 10.07 1 0 0 1 ""
  POPS 0 0 0 0 0 0 0 0 1 1 1 1 0 0 0 0
TOL TOFF   0   0              0              0   0 0 0 0
MNUM 9 1
SDIA   7   1 5.36785 0 0 0 1 1 1 0 0
SDIA   7   2 5.56235 0 0 0 1 1 1 0 0
SDIA   7   3 5.97654 0 0 0 1 1 1 0 0
SDIA   7   4 5.36785 0 0 0 1 1 1 0 0
SDIA   7   5 5.56235 0 0 0 1 1 1 0 0
SDIA   7   6 5.97654 0 0 0 1 1 1 0 0
SDIA   7   7 5.36785 0 0 0 1 1 1 0 0
SDIA   7   8 5.56235 0 0 0 1 1 1 0 0
SDIA   7   9 5.97654 0 0 0 1 1 1 0 0
THIC   0   1 1.00E+10 0 0 0 1 1 1 0 0
THIC   0   2 1.00E+10 0 0 0 1 1 1 0 0
THIC   0   3 1.00E+10 0 0 0 1 1 1 0 0
THIC   0   4 155.13 0 0 0 1 1 1 0 0
THIC   0   5 160.58 0 0 0 1 1 1 0 0
THIC   0   6 153.42 0 0 0 1 1 1 0 0
THIC   0   7 155.13 0 0 0 1 1 1 0 0
THIC   0   8 159.66 0 0 0 1 1 1 0 0
THIC   0   9 152.57 0 0 0 1 1 1 0 0
THIC   6   1 27.79 0 0 0 1 1 1 0 0
THIC   6   2 11.65 0 0 0 1 1 1 0 0
THIC   6   3 3.20 0 0 0 1 1 1 0 0
THIC   6   4 27.79 0 0 0 1 1 1 0 0
THIC   6   5 11.65 0 0 0 1 1 1 0 0
THIC   6   6 3.20 0 0 0 1 1 1 0 0
THIC   6   7 27.79 0 0 0 1 1 1 0 0
THIC   6   8 12.57 0 0 0 1 1 1 0 0
THIC   6   9 4.05 0 0 0 1 1 1 0 0
THIC   12   1 1.95 0 0 0 1 1 1 0 0
THIC   12   2 6.02 0 0 0 1 1 1 0 0
THIC   12   3 10.88 0 0 0 1 1 1 0 0
THIC   12   4 3.05 0 0 0 1 1 1 0 0
THIC   12   5 8.68 0 0 0 1 1 1 0 0
THIC   12   6 17.55 0 0 0 1 1 1 0 0
THIC   12   7 3.05 0 0 0 1 1 1 0 0
THIC   12   8 7.89 0 0 0 1 1 1 0 0
THIC   12   9 15.24 0 0 0 1 1 1 0 0
THIC   14   1 8.59 0 0 0 1 1 1 0 0
THIC   14   2 15.21 0 0 0 1 1 1 0 0
THIC   14   3 25.96 0 0 0 1 1 1 0 0
THIC   14   4 7.49 0 0 0 1 1 1 0 0
THIC   14   5 12.55 0 0 0 1 1 1 0 0
THIC   14   6 19.29 0 0 0 1 1 1 0 0
THIC   14   7 7.49 0 0 0 1 1 1 0 0
THIC   14   8 13.34 0 0 0 1 1 1 0 0
THIC   14   9 21.60 0 0 0 1 1 1 0 0
THIC   19   1 20.14 0 0 0 1 1 1 0 0
THIC   19   2 22.30 0 0 0 1 1 1 0 0
THIC   19   3 22.30 0 0 0 1 1 1 0 0
THIC   19   4 20.14 0 0 0 1 1 1 0 0
THIC   19   5 22.30 0 0 0 1 1 1 0 0
THIC   19   6 22.30 0 0 0 1 1 1 0 0
THIC   19   7 20.14 0 0 0 1 1 1 0 0
THIC   19   8 22.30 0 0 0 1 1 1 0 0
THIC   19   9 22.30 0 0 0 1 1 1 0 0
