VERS 161019 507 33785
MODE SEQ
NAME US 2015/0370053 Example 2 (Olympus M.Zuiko ED 12-50mm F3.5-6.3 EZ)
NOTE 0 Prepared and converted by Bill Claff.
PFIL 0 0 0
LANG 0
UNIT MM X W X CM MR CPMM
FLOA
ENVD 20 1 0
GFAC 0 0
RAIM 0 2 1 1 0 1 0 0 0
SDMA 0 1 0
FTYP 3 0 3 3 0 0 0
ROPD 2
HYPR 0
PICB 1
XFLN 0 0 0 0 0 0 0 0 0 0 0 0
YFLN 0 7.5705 10.815 0 0 0 0 0 0 0 0 0 0
FWGN 1 1 1 1 1 1 1 1 1 1 1 1
VDXN 0 0 0 0 0 0 0 0 0 0 0 0
VDYN 0 0 0 0 0 0 0 0 0 0 0 0
VCXN 0 0 0 0 0 0 0 0 0 0 0 0
VCYN 0 0 0 0 0 0 0 0 0 0 0 0
VANN 0 0 0 0 0 0 0 0 0 0 0 0
WAVM 1 0.4861327 1
WAVM 2 0.5875618 1
WAVM 3 0.6562725 1
WAVM 4 0.550 1
WAVM 5 0.550 1
WAVM 6 0.550 1
WAVM 7 0.550 1
WAVM 8 0.550 1
WAVM 9 0.550 1
WAVM 10 0.550 1
WAVM 11 0.550 1
WAVM 12 0.550 1
WAVM 13 0.550 1
WAVM 14 0.550 1
WAVM 15 0.550 1
WAVM 16 0.550 1
WAVM 17 0.550 1
WAVM 18 0.550 1
WAVM 19 0.550 1
WAVM 20 0.550 1
WAVM 21 0.550 1
WAVM 22 0.550 1
WAVM 23 0.550 1
WAVM 24 0.550 1
PWAV 2
POLS 1 0 1 0 0 1 0
GSTD 0 100 100 100 100 100 100 0 1 1 0 0 1 1 1 1 1 1
NSCD 100 500 0 1.0E-3 5 1.0E-6 0 0 0 0 0 0 1000000 0 2
SURF 0
  TYPE STANDARD
  CURV 0.0 0 0 0 0 ""
  HIDE 0 0 0 0 0 0 0 0 0 0
  MIRR 2 0
  DISZ INFINITY
  DIAM 0 1 0 0 1 ""
  POPS 0 0 0 0 0 0 0 0 1 1 1 1 0 0 0 0
SURF 1
  TYPE STANDARD
  CURV 0.0221137664830487 0 0 0 0
  HIDE 0 0 0 0 0 0 0 0 0 0
  MIRR 2 0
  DISZ  2.14
  GLAS  ___BLANK 1 0 1.77250 49.60 0 0 0 0 0 0
  DIAM  17.87 1 0 0 1 ""
  POPS 0 0 0 0 0 0 0 0 1 1 1 1 0 0 0 0
SURF 2
  TYPE STANDARD
  CURV 0.0612486142501026 0 0 0 0
  HIDE 0 0 0 0 0 0 0 0 0 0
  MIRR 2 0
  DISZ  5.12
  DIAM  13.39 1 0 0 1 ""
  POPS 0 0 0 0 0 0 0 0 1 1 1 1 0 0 0 0
SURF 3
  TYPE EVENASPH
  CURV 0.0238781450501799 0 0 0 0
  HIDE 0 0 0 0 0 0 0 0 0 0
  MIRR 2 0
  PARM 1 0
  PARM 2 2.0075E-05
  PARM 3 -2.7611E-07
  PARM 4 2.4894E-10
  PARM 5 3.5331E-12
  PARM 6 -9.3037E-15
  PARM 7 0
  PARM 8 0
  DISZ  1.5
  CONI  1.2447
  GLAS  ___BLANK 1 0 1.58313 59.38 0 0 0 0 0 0
  DIAM  13.39 1 0 0 1 ""
  POPS 0 0 0 0 0 0 0 0 1 1 1 1 0 0 0 0
SURF 4
  TYPE EVENASPH
  CURV 0.0691127989992467 0 0 0 0
  HIDE 0 0 0 0 0 0 0 0 0 0
  MIRR 2 0
  PARM 1 0
  PARM 2 2.1822E-05
  PARM 3 -3.0982E-07
  PARM 4 -1.7795E-09
  PARM 5 1.9840E-11
  PARM 6 -5.0306E-14
  PARM 7 0
  PARM 8 0
  DISZ  3.85
  CONI  -1.0662
  DIAM  12.365 1 0 0 1 ""
  POPS 0 0 0 0 0 0 0 0 1 1 1 1 0 0 0 0
SURF 5
  TYPE STANDARD
  CURV 0.0416772596368244 0 0 0 0
  HIDE 0 0 0 0 0 0 0 0 0 0
  MIRR 2 0
  DISZ  3.8
  GLAS  ___BLANK 1 0 1.80810 22.76 0 0 0 0 0 0
  DIAM  12.605 1 0 0 1 ""
  POPS 0 0 0 0 0 0 0 0 1 1 1 1 0 0 0 0
SURF 6
  TYPE STANDARD
  CURV 0.00962743742647045 0 0 0 0
  HIDE 0 0 0 0 0 0 0 0 0 0
  MIRR 2 0
  DISZ  6.6446
  DIAM  12.605 1 0 0 1 ""
  POPS 0 0 0 0 0 0 0 0 1 1 1 1 0 0 0 0
SURF 7
  TYPE STANDARD
  CURV -0.04025473194374 0 0 0 0
  HIDE 0 0 0 0 0 0 0 0 0 0
  MIRR 2 0
  DISZ  1.2
  GLAS  ___BLANK 1 0 1.74100 52.64 0 0 0 0 0 0
  DIAM  9.395 1 0 0 1 ""
  POPS 0 0 0 0 0 0 0 0 1 1 1 1 0 0 0 0
SURF 8
  TYPE STANDARD
  CURV -0.01 0 0 0 0
  HIDE 0 0 0 0 0 0 0 0 0 0
  MIRR 2 0
  DISZ  30.0675
  DIAM  9.395 1 0 0 1 ""
  POPS 0 0 0 0 0 0 0 0 1 1 1 1 0 0 0 0
SURF 9
  TYPE EVENASPH
  CURV 0.0711753903970163 0 0 0 0
  HIDE 0 0 0 0 0 0 0 0 0 0
  MIRR 2 0
  PARM 1 0
  PARM 2 -3.8287E-05
  PARM 3 -4.3941E-08
  PARM 4 1.5034E-10
  PARM 5 1.3526E-11
  PARM 6 0
  PARM 7 0
  PARM 8 0
  DISZ  4.3
  CONI  0
  GLAS  ___BLANK 1 0 1.58313 59.38 0 0 0 0 0 0
  DIAM  8.305 1 0 0 1 ""
  POPS 0 0 0 0 0 0 0 0 1 1 1 1 0 0 0 0
SURF 10
  TYPE EVENASPH
  CURV -0.0314469364394521 0 0 0 0
  HIDE 0 0 0 0 0 0 0 0 0 0
  MIRR 2 0
  PARM 1 0
  PARM 2 6.6094E-05
  PARM 3 -2.9345E-08
  PARM 4 -1.6201E-09
  PARM 5 3.6897E-11
  PARM 6 0
  PARM 7 0
  PARM 8 0
  DISZ  1.3
  CONI  0
  DIAM  6.9 1 0 0 1 ""
  POPS 0 0 0 0 0 0 0 0 1 1 1 1 0 0 0 0
SURF 11
  STOP
  TYPE STANDARD
  CURV 0 0 0 0 0
  HIDE 0 0 0 0 0 0 0 0 0 0
  MIRR 2 0
  DISZ  1.9
  DIAM  5.1695 1 0 0 1 ""
  POPS 0 0 0 0 0 0 0 0 1 1 1 1 0 0 0 0
SURF 12
  TYPE STANDARD
  CURV 0.00558628633739605 0 0 0 0
  HIDE 0 0 0 0 0 0 0 0 0 0
  MIRR 2 0
  DISZ  1
  GLAS  ___BLANK 1 0 1.83400 37.16 0 0 0 0 0 0
  DIAM  7.615 1 0 0 1 ""
  POPS 0 0 0 0 0 0 0 0 1 1 1 1 0 0 0 0
SURF 13
  TYPE STANDARD
  CURV 0.0918898057449507 0 0 0 0
  HIDE 0 0 0 0 0 0 0 0 0 0
  MIRR 2 0
  DISZ  5
  GLAS  ___BLANK 1 0 1.49700 81.54 0 0 0 0 0 0
  DIAM  6.275 1 0 0 1 ""
  POPS 0 0 0 0 0 0 0 0 1 1 1 1 0 0 0 0
SURF 14
  TYPE STANDARD
  CURV -0.0528010982628439 0 0 0 0
  HIDE 0 0 0 0 0 0 0 0 0 0
  MIRR 2 0
  DISZ  3.8142
  DIAM  6.275 1 0 0 1 ""
  POPS 0 0 0 0 0 0 0 0 1 1 1 1 0 0 0 0
SURF 15
  TYPE STANDARD
  CURV 0.00776093224318105 0 0 0 0
  HIDE 0 0 0 0 0 0 0 0 0 0
  MIRR 2 0
  DISZ  1
  GLAS  ___BLANK 1 0 1.83481 42.71 0 0 0 0 0 0
  DIAM  6.985 1 0 0 1 ""
  POPS 0 0 0 0 0 0 0 0 1 1 1 1 0 0 0 0
SURF 16
  TYPE STANDARD
  CURV 0.0654471677738146 0 0 0 0
  HIDE 0 0 0 0 0 0 0 0 0 0
  MIRR 2 0
  DISZ  1.58
  DIAM  5.685 1 0 0 1 ""
  POPS 0 0 0 0 0 0 0 0 1 1 1 1 0 0 0 0
SURF 17
  TYPE EVENASPH
  CURV 0.0268710298053463 0 0 0 0
  HIDE 0 0 0 0 0 0 0 0 0 0
  MIRR 2 0
  PARM 1 0
  PARM 2 2.9743E-04
  PARM 3 -7.3765E-06
  PARM 4 9.2595E-08
  PARM 5 -8.7606E-10
  PARM 6 0
  PARM 7 0
  PARM 8 0
  DISZ  2
  CONI  -82.6051
  GLAS  ___BLANK 1 0 1.53071 55.69 0 0 0 0 0 0
  DIAM  6.85 1 0 0 1 ""
  POPS 0 0 0 0 0 0 0 0 1 1 1 1 0 0 0 0
SURF 18
  TYPE EVENASPH
  CURV 0.0173888547874126 0 0 0 0
  HIDE 0 0 0 0 0 0 0 0 0 0
  MIRR 2 0
  PARM 1 0
  PARM 2 2.8604E-04
  PARM 3 -6.8173E-06
  PARM 4 8.5146E-08
  PARM 5 -7.3142E-10
  PARM 6 0
  PARM 7 0
  PARM 8 0
  DISZ  6.8162
  CONI  -271.4873
  DIAM  6.58 1 0 0 1 ""
  POPS 0 0 0 0 0 0 0 0 1 1 1 1 0 0 0 0
SURF 19
  TYPE STANDARD
  CURV -0.0133219830038141 0 0 0 0
  HIDE 0 0 0 0 0 0 0 0 0 0
  MIRR 2 0
  DISZ  2.48
  GLAS  ___BLANK 1 0 1.75211 25.05 0 0 0 0 0 0
  DIAM  10.46 1 0 0 1 ""
  POPS 0 0 0 0 0 0 0 0 1 1 1 1 0 0 0 0
SURF 20
  TYPE STANDARD
  CURV -0.0421526516125497 0 0 0 0
  HIDE 0 0 0 0 0 0 0 0 0 0
  MIRR 2 0
  DISZ  11.1634
  DIAM  10.46 1 0 0 1 ""
  POPS 0 0 0 0 0 0 0 0 1 1 1 1 0 0 0 0
SURF 21
  TYPE STANDARD
  CURV 0 0 0 0 0
  HIDE 0 0 0 0 0 0 0 0 0 0
  MIRR 2 0
  DISZ  4.08
  GLAS  ___BLANK 1 0 1.51633 64.14 0 0 0 0 0 0
  DIAM  13.25 1 0 0 1 ""
  POPS 0 0 0 0 0 0 0 0 1 1 1 1 0 0 0 0
SURF 22
  TYPE STANDARD
  CURV 0 0 0 0 0
  HIDE 0 0 0 0 0 0 0 0 0 0
  MIRR 2 0
  DISZ  0.745
  DIAM  13.25 1 0 0 1 ""
  POPS 0 0 0 0 0 0 0 0 1 1 1 1 0 0 0 0
SURF 23
  TYPE STANDARD
  CURV 0.0 0 0 0 0 ""
  HIDE 0 0 0 0 0 0 0 0 0 0
  MIRR 2 0
  DISZ 0
  DIAM 10.815 1 0 0 1 ""
  POPS 0 0 0 0 0 0 0 0 1 1 1 1 0 0 0 0
TOL TOFF   0   0              0              0   0 0 0 0
MNUM 6 1
SDIA   11   1 5.1695 0 0 0 1 1 1 0 0
SDIA   11   2 5.3865 0 0 0 1 1 1 0 0
SDIA   11   3 6.413 0 0 0 1 1 1 0 0
SDIA   11   4 5.1695 0 0 0 1 1 1 0 0
SDIA   11   5 5.3865 0 0 0 1 1 1 0 0
SDIA   11   6 6.413 0 0 0 1 1 1 0 0
THIC   0   1 1.00E+10 0 0 0 1 1 1 0 0
THIC   0   2 1.00E+10 0 0 0 1 1 1 0 0
THIC   0   3 1.00E+10 0 0 0 1 1 1 0 0
THIC   0   4 248.50 0 0 0 1 1 1 0 0
THIC   0   5 248.50 0 0 0 1 1 1 0 0
THIC   0   6 248.50 0 0 0 1 1 1 0 0
THIC   6   1 6.6446 0 0 0 1 1 1 0 0
THIC   6   2 9.3245 0 0 0 1 1 1 0 0
THIC   6   3 5.9114 0 0 0 1 1 1 0 0
THIC   6   4 5.3346 0 0 0 1 1 1 0 0
THIC   6   5 8.0933 0 0 0 1 1 1 0 0
THIC   6   6 4.5785 0 0 0 1 1 1 0 0
THIC   8   1 30.0675 0 0 0 1 1 1 0 0
THIC   8   2 12.3503 0 0 0 1 1 1 0 0
THIC   8   3 1.5559 0 0 0 1 1 1 0 0
THIC   8   4 31.3775 0 0 0 1 1 1 0 0
THIC   8   5 13.5815 0 0 0 1 1 1 0 0
THIC   8   6 2.8888 0 0 0 1 1 1 0 0
THIC   14   1 3.8142 0 0 0 1 1 1 0 0
THIC   14   2 7.9355 0 0 0 1 1 1 0 0
THIC   14   3 19.7513 0 0 0 1 1 1 0 0
THIC   14   4 3.8142 0 0 0 1 1 1 0 0
THIC   14   5 7.9355 0 0 0 1 1 1 0 0
THIC   14   6 19.7513 0 0 0 1 1 1 0 0
THIC   18   1 6.8162 0 0 0 1 1 1 0 0
THIC   18   2 17.7320 0 0 0 1 1 1 0 0
THIC   18   3 20.1237 0 0 0 1 1 1 0 0
THIC   18   4 6.8162 0 0 0 1 1 1 0 0
THIC   18   5 17.7320 0 0 0 1 1 1 0 0
THIC   18   6 20.1237 0 0 0 1 1 1 0 0
